data/inputs/nesta_case2848_rte.m
%%%%%%%%%%%%%%%%%%%%%%%%%%%%%%%%%%%%%%%%%%%%%%%%%%%%%%%%%%%%%%%%%%%%%%%%%%%
%%%%                                                                  %%%%%
%%%%      NICTA Energy System Test Case Archive (NESTA) - v0.7.0      %%%%%
%%%%              Optimal Power Flow - Typical Operation              %%%%%
%%%%                         05 - June - 2017                         %%%%%
%%%%                                                                  %%%%%
%%%%%%%%%%%%%%%%%%%%%%%%%%%%%%%%%%%%%%%%%%%%%%%%%%%%%%%%%%%%%%%%%%%%%%%%%%%
%
%CASE2848RTE
%   AC Power flow data for French system.
%   Please see CASEFORMAT for details on the case file format.
%
%   This case accurately represents the size and complexity of French
%   very high voltage transmission network.
%   Part of this data was sampled in the offline platform of iTesla.
%   These data can be used to validate mathematical methods and tools.
%   These data should NOT be used for operation
%   nor planning of the French or European grids.
%
%   When publishing results using this data, please cite:
%     C. Josz, S. Fliscounakis, J. Maeght, and P. Panciatici,
%     "AC Power Flow Data in MATPOWER and QCQP Format: iTesla, RTE Snapshots, and PEGASE"
%     http://arxiv.org/abs/1603.01533
%
%   Contacts (primary contact for this file : Jean Maeght):
%   Cédric Josz, Stéphane Fliscounakis, Jean Maeght, Patrick Panciatici
%   firstname.lastname@rte-france.com
%   Réseau de Transport d'Electricité (French Transmission System Operator)
%   Département Expertise Système, Immeuble "Le Colbert"
%   9 rue de la Porte de Buc, 78000 Versailles Cedex, France
%   March 4th, 2016
%
function mpc = nesta_case2848_rte
mpc.version = '2';
mpc.baseMVA = 100.0;

%% bus data
%	bus_i	type	Pd	Qd	Gs	Bs	area	Vm	Va	baseKV	zone	Vmax	Vmin
mpc.bus = [
	1	 1	 20.6	 0.0	 0.0	 0.0	 1	    1.02090	   -5.04885	 63.0	 1	    1.06349	    0.93651;
	2	 1	 20.9	 17.2	 0.0	 0.0	 1	    1.05142	   -7.36695	 225.0	 1	    1.08889	    0.88889;
	3	 1	 0.0	 0.0	 0.0	 0.0	 1	    1.05317	    0.27224	 380.0	 1	    1.10263	    1.00000;
	4	 1	 0.0	 0.0	 0.0	 0.0	 1	    1.03670	   -7.40769	 63.0	 1	    1.07937	    0.92063;
	5	 1	 0.4	 0.1	 0.0	 0.0	 1	    0.91048	   -3.79134	 45.0	 1	    1.00000	    0.88889;
	6	 1	 -2.3	 -20.6	 0.0	 0.0	 1	    0.91160	   -3.80755	 45.0	 1	    1.00000	    0.88889;
	7	 1	 110.5	 -25.5	 0.0	 0.0	 1	    1.06470	   -2.81677	 225.0	 1	    1.08444	    1.00000;
	8	 1	 44.7	 1.5	 0.0	 0.0	 1	    1.03561	   -5.91148	 63.0	 1	    1.06349	    0.96825;
	9	 1	 0.0	 0.0	 0.0	 -21.0	 1	    1.00567	   -0.98572	 20.0	 1	    1.20000	    0.80000;
	2966	 1	 0.0	 0.0	 0.0	 -64.0	 1	    0.97022	   -4.25693	 20.0	 1	    1.20000	    0.80000;
	10	 1	 0.0	 0.0	 0.0	 0.0	 1	    1.01833	   -3.65275	 150.0	 1	    1.10667	    0.90000;
	11	 1	 31.7	 -8.7	 0.0	 0.0	 1	    1.01770	   -3.96056	 225.0	 1	    1.08889	    0.93333;
	2571	 1	 43.7	 9.9	 0.0	 0.0	 1	    1.01653	   -3.61155	 225.0	 1	    1.08889	    0.93333;
	12	 1	 0.0	 0.0	 0.0	 0.0	 1	    1.02585	   -1.02763	 380.0	 1	    1.10526	    1.00000;
	13	 1	 0.0	 0.0	 0.0	 0.0	 1	    1.05105	   -8.02386	 225.0	 1	    1.09067	    1.00000;
	14	 1	 -4.1	 3.7	 0.0	 0.0	 1	    0.99257	   -8.39019	 63.0	 1	    1.06349	    0.93651;
	15	 1	 9.0	 -3.3	 0.0	 0.0	 1	    1.00789	   -7.99642	 63.0	 1	    1.06349	    0.93651;
	16	 1	 120.0	 6.3	 0.0	 0.0	 1	    1.03213	   -5.88949	 225.0	 1	    1.08889	    0.93333;
	17	 1	 35.0	 6.9	 0.0	 0.0	 1	    1.05614	   -8.54390	 225.0	 1	    1.08889	    1.00000;
	18	 1	 45.0	 13.4	 0.0	 0.0	 1	    1.02325	   -5.87354	 225.0	 1	    1.08962	    1.00000;
	19	 2	 0.0	 0.0	 0.0	 0.0	 1	    1.04533	   -3.90988	 63.0	 1	    1.08661	    0.92063;
	20	 1	 77.3	 29.1	 0.0	 0.0	 1	    1.05609	   -8.55377	 225.0	 1	    1.08889	    1.00000;
	21	 1	 48.4	 4.0	 0.0	 0.0	 1	    1.06394	   -3.81377	 225.0	 1	    1.08889	    0.88889;
	22	 1	 4.6	 -11.4	 0.0	 0.0	 1	    1.07137	  -10.78985	 63.0	 1	    1.07249	    0.93651;
	23	 1	 33.3	 -5.7	 0.0	 0.0	 1	    1.00147	   -8.27099	 63.0	 1	    1.06349	    0.93651;
	24	 1	 0.0	 0.0	 0.0	 0.0	 1	    1.06617	   -3.61795	 225.0	 1	    1.08889	    1.00000;
	2573	 1	 0.0	 0.0	 0.0	 0.0	 1	    1.06617	   -3.61795	 225.0	 1	    1.08889	    1.00000;
	25	 1	 18.0	 5.6	 0.0	 0.0	 1	    1.06415	   -3.88393	 225.0	 1	    1.08889	    0.88889;
	26	 1	 1.0	 -8.0	 0.0	 0.0	 1	    1.07629	   -2.01917	 225.0	 1	    1.09649	    0.98667;
	27	 1	 22.0	 -5.6	 0.0	 0.0	 1	    1.02996	   -7.83741	 63.0	 1	    1.06349	    0.93651;
	28	 1	 -2.1	 -0.1	 0.0	 0.0	 1	    1.04377	   -7.80700	 225.0	 1	    1.08889	    1.00000;
	2574	 1	 39.1	 10.0	 0.0	 0.0	 1	    1.04373	   -7.81013	 225.0	 1	    1.08889	    1.00000;
	29	 1	 7.1	 -2.6	 0.0	 0.0	 1	    0.99304	   -8.38299	 63.0	 1	    1.06349	    0.93651;
	30	 1	 3.5	 -40.0	 0.0	 0.0	 1	    1.05643	   -6.43812	 225.0	 1	    1.08889	    1.00000;
	31	 1	 7.7	 -1.8	 0.0	 0.0	 1	    1.02356	   -4.99102	 63.0	 1	    1.07211	    0.93651;
	32	 1	 12.1	 2.1	 0.0	 0.0	 1	    0.96667	   -8.77605	 63.0	 1	    1.06349	    0.93651;
	33	 1	 2.4	 -0.4	 0.0	 0.0	 1	    0.91004	   -4.16049	 45.0	 1	    1.00000	    0.88889;
	34	 1	 -0.0	 0.0	 0.0	 0.0	 1	    0.91054	   -3.78653	 45.0	 1	    1.00000	    0.88889;
	35	 1	 26.0	 0.1	 0.0	 0.0	 1	    1.02835	   -9.66292	 63.0	 1	    1.06349	    0.96825;
	36	 1	 0.7	 -4.1	 0.0	 0.0	 1	    0.95196	   -6.70015	 45.0	 1	    1.00000	    0.88889;
	37	 1	 9.3	 -5.3	 0.0	 0.0	 1	    1.03399	   -6.50980	 63.0	 1	    1.06349	    0.93651;
	39	 1	 78.4	 -4.8	 0.0	 0.0	 1	    1.06539	   -5.26942	 225.0	 1	    1.08934	    0.98667;
	40	 1	 25.1	 -3.3	 0.0	 0.0	 1	    1.06921	   -5.66583	 225.0	 1	    1.08889	    0.88889;
	41	 1	 80.4	 7.4	 0.0	 0.0	 1	    1.08444	  -14.45421	 225.0	 1	    1.08444	    1.00000;
	42	 1	 37.8	 2.9	 0.0	 0.0	 1	    1.01404	   -4.71926	 63.0	 1	    1.06370	    0.93651;
	43	 1	 0.0	 0.0	 0.0	 0.0	 1	    1.02288	   -3.30832	 225.0	 1	    1.08889	    0.93333;
	44	 1	 29.0	 -10.0	 0.0	 0.0	 1	    1.03403	   -8.78401	 63.0	 1	    1.06349	    0.96825;
	45	 1	 97.4	 -3.0	 0.0	 0.0	 1	    1.04343	   -6.66965	 225.0	 1	    1.08889	    1.00000;
	46	 1	 0.0	 0.0	 0.0	 0.0	 1	    1.05309	    0.31035	 380.0	 1	    1.10526	    1.00000;
	2575	 1	 0.0	 0.0	 0.0	 0.0	 1	    1.05309	    0.31035	 380.0	 1	    1.10526	    1.00000;
	47	 1	 21.3	 -2.6	 0.0	 0.0	 1	    1.01221	   -5.02945	 63.0	 1	    1.06606	    0.93651;
	48	 1	 -0.3	 0.8	 0.0	 0.0	 1	    1.02876	   -5.27749	 63.0	 1	    1.06735	    0.93651;
	49	 1	 11.6	 3.2	 0.0	 0.0	 1	    1.02200	   -3.59233	 63.0	 1	    1.06349	    0.96825;
	2576	 1	 9.3	 4.7	 0.0	 0.0	 1	    1.02671	   -3.96027	 63.0	 1	    1.06349	    0.96825;
	50	 1	 0.0	 0.0	 0.0	 0.0	 1	    1.05772	   -2.57267	 225.0	 1	    1.08444	    1.00000;
	51	 1	 66.6	 0.0	 0.0	 0.0	 1	    1.07118	   -3.85705	 225.0	 1	    1.08444	    1.00000;
	52	 1	 0.0	 0.0	 0.0	 0.0	 1	    1.05640	   -8.41783	 225.0	 1	    1.08889	    1.00000;
	2942	 1	 53.9	 11.2	 0.0	 0.0	 1	    1.04588	   -9.06454	 225.0	 1	    1.08889	    1.00000;
	53	 2	 7.9	 -4.7	 0.0	 0.0	 1	    1.03073	   -4.12160	 63.0	 1	    1.06349	    0.96825;
	54	 1	 0.0	 0.0	 0.0	 0.0	 1	    1.04878	   -4.39214	 150.0	 1	    1.08000	    0.96667;
	55	 1	 40.5	 8.5	 0.0	 0.0	 1	    1.08156	  -18.27056	 225.0	 1	    1.09459	    1.00000;
	56	 1	 0.0	 0.0	 0.0	 0.0	 1	    1.09159	  -16.35360	 380.0	 1	    1.10526	    1.00000;
	57	 1	 80.2	 -7.7	 0.0	 0.0	 1	    1.04324	   -6.98736	 225.0	 1	    1.08889	    0.98667;
	58	 1	 0.0	 0.0	 0.0	 -64.0	 1	    1.05951	   -3.95480	 20.0	 1	    1.20000	    0.80000;
	59	 1	 35.3	 -9.2	 0.0	 0.0	 1	    1.06385	   -3.77941	 225.0	 1	    1.08889	    0.96889;
	60	 1	 58.9	 2.6	 0.0	 0.0	 1	    1.06669	   -2.78294	 380.0	 1	    1.10526	    1.00000;
	61	 1	 5.5	 1.7	 0.0	 0.0	 1	    1.01492	   -5.95543	 63.0	 1	    1.06349	    0.93651;
	62	 1	 0.6	 0.7	 0.0	 0.0	 1	    1.01681	   -7.33448	 63.0	 1	    1.06349	    0.96825;
	63	 1	 28.6	 4.1	 0.0	 0.0	 1	    1.01701	   -7.33195	 63.0	 1	    1.06349	    0.96825;
	2577	 1	 0.0	 0.0	 0.0	 0.0	 1	    1.01700	   -8.59423	 63.0	 1	    1.06349	    0.96825;
	64	 1	 39.6	 9.4	 0.0	 0.0	 1	    1.03310	   -2.88969	 225.0	 1	    1.08889	    0.93333;
	65	 1	 0.0	 0.0	 0.0	 0.0	 1	    1.01698	   -8.59867	 63.0	 1	    1.06349	    0.96825;
	66	 1	 12.5	 -6.5	 0.0	 0.0	 1	    0.89124	   -3.97793	 45.0	 1	    1.00000	    0.88889;
	2578	 2	 0.0	 0.0	 0.0	 0.0	 1	    0.95797	   -2.64648	 45.0	 1	    1.00000	    0.88889;
	67	 1	 0.4	 3.2	 0.0	 0.0	 1	    1.07137	   -5.36994	 225.0	 1	    1.08889	    0.88889;
	2579	 1	 42.5	 7.2	 0.0	 0.0	 1	    1.07097	   -5.45591	 225.0	 1	    1.08889	    0.88889;
	68	 1	 4.2	 -2.2	 0.0	 0.0	 1	    1.06128	  -13.83755	 20.0	 1	    1.20000	    0.80000;
	69	 1	 139.3	 4.7	 0.0	 0.0	 1	    1.06127	  -13.83568	 225.0	 1	    1.08685	    1.00000;
	70	 1	 83.7	 -8.3	 0.0	 0.0	 1	    1.05862	   -7.45603	 225.0	 1	    1.08889	    1.00000;
	71	 2	 0.0	 0.0	 0.0	 0.0	 1	    1.10442	   -3.06468	 150.0	 1	    1.10885	    0.90000;
	72	 1	 0.0	 0.0	 0.0	 0.0	 1	    1.03608	   -5.96354	 225.0	 1	    1.08889	    1.00000;
	2580	 1	 0.0	 0.0	 0.0	 0.0	 1	    1.03608	   -5.96354	 225.0	 1	    1.08889	    1.00000;
	74	 1	 0.0	 0.0	 0.0	 -80.0	 1	    1.03608	   -5.96353	 225.0	 1	    1.08889	    1.00000;
	75	 1	 15.2	 5.4	 0.0	 0.0	 1	    1.01179	   -4.34523	 63.0	 1	    1.06349	    0.93651;
	76	 2	 0.0	 0.0	 0.0	 0.0	 1	    0.92430	   -3.06188	 45.0	 1	    1.00000	    0.88889;
	77	 1	 5.7	 -1.3	 0.0	 0.0	 1	    1.04971	   -4.09005	 63.0	 1	    1.08481	    0.92063;
	78	 1	 7.8	 5.8	 0.0	 0.0	 1	    1.04248	   -6.99221	 225.0	 1	    1.08889	    1.00000;
	79	 1	 14.0	 -4.6	 0.0	 0.0	 1	    1.05114	  -17.09179	 63.0	 1	    1.07937	    0.92063;
	80	 1	 7.1	 -2.3	 0.0	 0.0	 1	    1.02595	   -6.45302	 63.0	 1	    1.08744	    0.92063;
	81	 1	 0.0	 0.0	 0.0	 0.0	 1	    1.05986	   -6.13117	 225.0	 1	    1.08889	    1.00000;
	82	 1	 59.6	 24.0	 0.0	 0.0	 1	    1.06567	   -5.76442	 225.0	 1	    1.08889	    0.88889;
	83	 1	 27.8	 -7.5	 0.0	 0.0	 1	    1.04253	  -11.99031	 63.0	 1	    1.06349	    0.96740;
	84	 1	 61.1	 -4.5	 0.0	 0.0	 1	    1.05971	   -4.24627	 225.0	 1	    1.08889	    0.96889;
	85	 1	 0.0	 0.0	 0.0	 0.0	 1	    1.05820	   -2.45283	 380.0	 1	    1.10526	    1.00000;
	86	 1	 31.8	 1.0	 0.0	 0.0	 1	    1.04389	   -9.87517	 63.0	 1	    1.06349	    0.96825;
	87	 1	 22.8	 -0.9	 0.0	 0.0	 1	    0.97997	   -5.68912	 63.0	 1	    1.06349	    0.96825;
	88	 1	 2.1	 0.8	 0.0	 0.0	 1	    1.03102	   -5.15209	 63.0	 1	    1.06349	    0.96825;
	89	 1	 30.5	 6.3	 0.0	 0.0	 1	    1.01913	   -3.64752	 63.0	 1	    1.06349	    0.96825;
	2581	 1	 32.0	 12.1	 0.0	 0.0	 1	    1.01909	   -3.57847	 63.0	 1	    1.06349	    0.96825;
	90	 1	 0.0	 0.0	 0.0	 0.0	 1	    1.06449	   -3.50253	 225.0	 1	    1.08444	    1.00000;
	2582	 1	 0.0	 0.0	 0.0	 0.0	 1	    1.06461	   -3.50212	 225.0	 1	    1.08444	    1.00000;
	91	 1	 89.3	 -15.7	 0.0	 0.0	 1	    1.06427	   -9.90167	 225.0	 1	    1.08889	    1.00000;
	92	 1	 6.4	 -11.6	 0.0	 0.0	 1	    1.04982	   -2.49520	 225.0	 1	    1.09041	    0.93333;
	93	 2	 0.0	 0.0	 0.0	 0.0	 1	    1.10368	   -3.16848	 150.0	 1	    1.10907	    0.90000;
	94	 1	 37.7	 57.2	 0.0	 0.0	 1	    1.06966	   -1.50095	 225.0	 1	    1.08444	    1.00000;
	2583	 1	 33.4	 -0.5	 0.0	 0.0	 1	    1.07058	   -1.50644	 225.0	 1	    1.08444	    1.00000;
	95	 1	 0.0	 0.0	 0.0	 0.0	 1	    1.07058	   -1.69917	 225.0	 1	    1.08889	    0.97778;
	96	 1	 9.0	 0.8	 0.0	 0.0	 1	    1.06783	   -3.34902	 225.0	 1	    1.08889	    0.88889;
	97	 1	 35.8	 4.5	 0.0	 0.0	 1	    1.03210	   -8.13499	 63.0	 1	    1.06349	    0.96825;
	98	 1	 16.5	 -8.7	 0.0	 0.0	 1	    1.01358	   -3.38116	 225.0	 1	    1.08889	    0.93333;
	99	 1	 28.6	 5.0	 0.0	 0.0	 1	    1.05099	   -8.07922	 225.0	 1	    1.08889	    1.00000;
	2584	 1	 14.5	 3.6	 0.0	 0.0	 1	    1.02257	   -6.03520	 225.0	 1	    1.08889	    1.00000;
	100	 1	 7.3	 -5.1	 0.0	 0.0	 1	    1.06190	   -6.65135	 225.0	 1	    1.08889	    1.00000;
	101	 1	 6.4	 2.5	 0.0	 0.0	 1	    1.04970	   -4.99024	 225.0	 1	    1.08889	    0.98667;
	102	 1	 0.0	 0.0	 0.0	 0.0	 1	    1.07142	   -5.22236	 225.0	 1	    1.08889	    0.88889;
	2585	 1	 0.0	 0.0	 0.0	 0.0	 1	    1.07055	   -5.33719	 225.0	 1	    1.08889	    0.88889;
	103	 1	 0.0	 0.0	 0.0	 0.0	 1	    1.07415	   -3.88494	 380.0	 1	    1.10526	    1.00000;
	104	 1	 45.6	 7.0	 0.0	 0.0	 1	    1.04417	   -7.97393	 225.0	 1	    1.08889	    1.00000;
	2586	 1	 19.1	 5.8	 0.0	 -80.0	 1	    1.04634	   -6.49197	 225.0	 1	    1.08889	    1.00000;
	105	 1	 10.1	 -0.9	 0.0	 0.0	 1	    1.01975	   -7.70559	 63.0	 1	    1.07937	    0.92063;
	106	 1	 0.0	 0.0	 0.0	 0.0	 1	    1.05603	   -2.72115	 225.0	 1	    1.08889	    0.97778;
	2587	 1	 0.0	 0.0	 0.0	 0.0	 1	    1.05606	   -2.72048	 225.0	 1	    1.08889	    0.97778;
	107	 1	 8.4	 3.5	 0.0	 0.0	 1	    1.03842	   -5.67533	 63.0	 1	    1.06349	    0.96825;
	108	 1	 39.7	 -6.4	 0.0	 0.0	 1	    1.05661	   -3.16997	 225.0	 1	    1.08444	    1.00000;
	109	 1	 0.0	 0.0	 0.0	 0.0	 1	    1.06893	   -4.63424	 225.0	 1	    1.08444	    1.00000;
	110	 1	 0.0	 0.0	 0.0	 0.0	 1	    1.06430	    0.65802	 380.0	 1	    1.10263	    1.00000;
	111	 1	 62.2	 -16.1	 0.0	 0.0	 1	    1.06884	   -4.68752	 225.0	 1	    1.08444	    1.00000;
	112	 1	 2.2	 -1.0	 0.0	 0.0	 1	    1.02399	   -5.75949	 225.0	 1	    1.09035	    1.00000;
	2588	 1	 12.3	 -2.0	 0.0	 0.0	 1	    1.02397	   -5.76587	 225.0	 1	    1.09035	    1.00000;
	113	 1	 5.0	 -3.8	 0.0	 0.0	 1	    1.07855	   -3.10288	 225.0	 1	    1.08889	    0.88889;
	114	 1	 30.0	 0.0	 0.0	 0.0	 1	    1.01040	   -6.78528	 63.0	 1	    1.06349	    0.93651;
	115	 1	 11.7	 1.8	 0.0	 0.0	 1	    1.06784	   -4.81672	 225.0	 1	    1.08889	    0.88889;
	116	 1	 51.9	 15.9	 0.0	 0.0	 1	    1.06324	   -4.48183	 225.0	 1	    1.08889	    0.88889;
	117	 1	 2.6	 0.2	 0.0	 0.0	 1	    1.01147	   -5.28721	 63.0	 1	    1.06349	    0.96825;
	118	 1	 38.0	 3.1	 0.0	 0.0	 1	    1.03737	  -19.01457	 63.0	 1	    1.07937	    0.92063;
	119	 1	 24.0	 -7.3	 0.0	 0.0	 1	    1.03410	  -11.59844	 63.0	 1	    1.06349	    0.96825;
	120	 2	 0.0	 0.0	 0.0	 0.0	 1	    1.02865	   -5.10034	 63.0	 1	    1.06863	    0.93651;
	121	 1	 8.0	 2.5	 0.0	 0.0	 1	    1.05895	  -13.10945	 63.0	 1	    1.06349	    0.96825;
	2589	 1	 9.9	 3.5	 0.0	 0.0	 1	    1.05930	  -13.11638	 63.0	 1	    1.06349	    0.96825;
	122	 1	 77.1	 -3.9	 0.0	 0.0	 1	    1.08124	   -6.03901	 225.0	 1	    1.08889	    1.00000;
	123	 1	 21.2	 4.4	 0.0	 0.0	 1	    1.05773	   -9.31895	 63.0	 1	    1.07937	    0.92063;
	124	 2	 -0.0	 -4.6	 0.0	 0.0	 1	    1.05559	   -4.27208	 63.0	 1	    1.08203	    0.92063;
	125	 1	 0.0	 0.0	 0.0	 0.0	 1	    1.06589	  -12.70057	 63.0	 1	    1.07937	    0.92063;
	126	 1	 0.0	 0.0	 0.0	 0.0	 1	    1.03173	   -9.08825	 225.0	 1	    1.08889	    1.00000;
	127	 1	 0.0	 0.0	 0.0	 0.0	 1	    1.06989	   -9.12892	 380.0	 1	    1.10526	    1.00000;
	128	 1	 17.1	 1.5	 0.0	 0.0	 1	    1.02100	   -5.12768	 63.0	 1	    1.06349	    0.93651;
	129	 2	 18.2	 12.2	 0.0	 0.0	 1	    1.01291	   -6.47200	 63.0	 1	    1.06349	    0.93651;
	130	 1	 -13.2	 16.1	 0.0	 0.0	 1	    1.05266	   -8.78350	 63.0	 1	    1.07937	    0.92063;
	131	 1	 0.0	 0.0	 0.0	 0.0	 1	    1.05749	   -7.44600	 225.0	 1	    1.08889	    1.00000;
	132	 1	 81.2	 18.3	 0.0	 0.0	 1	    1.07028	   -6.95419	 225.0	 1	    1.08889	    1.00000;
	133	 2	 9.6	 3.3	 0.0	 0.0	 1	    1.05528	  -12.05647	 63.0	 1	    1.06538	    0.96825;
	134	 2	 0.0	 0.0	 0.0	 0.0	 1	    1.04480	   -7.18606	 150.0	 1	    1.08000	    0.96667;
	135	 2	 -8.9	 -4.4	 0.0	 0.0	 1	    1.04459	   -5.67537	 63.0	 1	    1.07937	    0.92063;
	136	 1	 -10.6	 -2.1	 0.0	 0.0	 1	    1.03983	   -2.71967	 225.0	 1	    1.08889	    0.98667;
	137	 1	 14.1	 -3.7	 0.0	 0.0	 1	    1.00553	   -8.15513	 63.0	 1	    1.06349	    0.96825;
	138	 1	 11.3	 -2.7	 0.0	 0.0	 1	    1.03501	   -2.18706	 225.0	 1	    1.08444	    1.00000;
	139	 1	 9.4	 -2.2	 0.0	 0.0	 1	    1.03657	  -15.49100	 63.0	 1	    1.06349	    0.96825;
	140	 1	 0.0	 0.0	 0.0	 0.0	 1	    1.06473	   -1.04560	 380.0	 1	    1.10526	    1.00000;
	2590	 1	 0.0	 0.0	 0.0	 0.0	 1	    1.06469	   -1.05190	 380.0	 1	    1.10526	    1.00000;
	141	 1	 11.1	 4.5	 0.0	 0.0	 1	    1.08534	   -5.99653	 225.0	 1	    1.08889	    1.00000;
	142	 1	 7.2	 5.2	 0.0	 0.0	 1	    1.06485	   -7.67728	 225.0	 1	    1.08889	    1.00000;
	143	 1	 20.9	 -1.3	 0.0	 0.0	 1	    1.04503	   -8.50483	 63.0	 1	    1.06349	    0.96825;
	144	 1	 33.4	 6.5	 0.0	 0.0	 1	    1.09190	   -5.01951	 150.0	 1	    1.10000	    0.90000;
	145	 1	 61.8	 -3.3	 0.0	 0.0	 1	    1.07165	   -9.00158	 225.0	 1	    1.08925	    1.00000;
	146	 2	 0.0	 -0.0	 0.0	 0.0	 1	    1.04369	   -7.81600	 225.0	 1	    1.08889	    1.00000;
	147	 1	 0.0	 0.0	 0.0	 0.0	 1	    1.01708	   -4.05900	 225.0	 1	    1.08889	    0.93333;
	148	 1	 0.0	 0.0	 0.0	 0.0	 1	    1.02533	   -0.95042	 380.0	 1	    1.10526	    1.00000;
	2591	 1	 0.0	 0.0	 0.0	 0.0	 1	    1.02555	   -0.98024	 380.0	 1	    1.10526	    1.00000;
	149	 1	 0.0	 0.0	 0.0	 0.0	 1	    1.05643	   -8.52555	 225.0	 1	    1.08889	    1.00000;
	2592	 1	 61.8	 10.2	 0.0	 0.0	 1	    1.04510	   -9.23677	 225.0	 1	    1.08889	    1.00000;
	150	 1	 0.0	 0.0	 0.0	 0.0	 1	    1.03739	   -3.83618	 225.0	 1	    1.08889	    0.98667;
	151	 1	 9.8	 4.5	 0.0	 0.0	 1	    1.05626	   -8.53536	 225.0	 1	    1.08889	    1.00000;
	152	 1	 0.0	 0.0	 0.0	 0.0	 1	    1.02429	   -2.34460	 20.0	 1	    1.20000	    0.80000;
	153	 1	 88.2	 -7.1	 0.0	 0.0	 1	    1.02153	   -2.17288	 225.0	 1	    1.08889	    0.93333;
	154	 1	 0.0	 0.0	 0.0	 0.0	 1	    1.04350	   -1.47938	 380.0	 1	    1.10526	    1.00000;
	155	 1	 23.8	 -12.3	 0.0	 0.0	 1	    1.08078	   -4.61741	 225.0	 1	    1.08889	    1.00000;
	156	 1	 18.2	 -0.6	 0.0	 0.0	 1	    1.04358	   -6.63515	 63.0	 1	    1.06503	    0.93651;
	157	 1	 0.4	 0.2	 0.0	 0.0	 1	    1.03829	   -6.03879	 63.0	 1	    1.06349	    0.96825;
	158	 1	 18.7	 -2.5	 0.0	 0.0	 1	    1.04076	   -9.21156	 63.0	 1	    1.07937	    0.92063;
	159	 1	 19.2	 -1.0	 0.0	 0.0	 1	    1.04369	  -10.49927	 63.0	 1	    1.06349	    0.96825;
	160	 1	 4.0	 0.2	 0.0	 0.0	 1	    1.02848	   -7.78112	 63.0	 1	    1.06349	    0.93651;
	161	 2	 0.0	 0.0	 0.0	 0.0	 1	    1.02970	   -5.16073	 63.0	 1	    1.15000	    0.80000;
	162	 1	 2.8	 3.9	 0.0	 0.0	 1	    1.05894	   -6.89526	 225.0	 1	    1.09053	    1.00000;
	163	 1	 0.0	 0.0	 0.0	 0.0	 1	    1.05678	  -18.27529	 63.0	 1	    1.06349	    0.96825;
	164	 1	 68.7	 -27.8	 0.0	 0.0	 1	    1.09791	  -11.10084	 225.0	 1	    1.09791	    1.00000;
	165	 1	 70.9	 -7.8	 0.0	 0.0	 1	    1.06015	   -3.36597	 225.0	 1	    1.08889	    0.98667;
	166	 1	 35.7	 1.2	 0.0	 0.0	 1	    1.03660	   -5.28167	 63.0	 1	    1.06349	    0.96825;
	167	 1	 66.9	 15.7	 0.0	 0.0	 1	    1.05105	   -8.01872	 225.0	 1	    1.09067	    1.00000;
	168	 1	 10.2	 -5.9	 0.0	 0.0	 1	    1.03312	   -6.84618	 63.0	 1	    1.06349	    0.93651;
	169	 1	 22.5	 -8.3	 0.0	 0.0	 1	    1.01106	   -7.67974	 63.0	 1	    1.06349	    0.96825;
	170	 1	 3.1	 1.2	 0.0	 0.0	 1	    1.01266	   -6.54389	 63.0	 1	    1.06822	    0.93651;
	171	 1	 103.9	 36.4	 0.0	 0.0	 1	    1.06520	   -5.98135	 225.0	 1	    1.08889	    0.92444;
	172	 2	 -0.0	 0.0	 0.0	 0.0	 1	    0.98927	   -4.14763	 63.0	 1	    1.06349	    0.96825;
	173	 1	 46.9	 -16.3	 0.0	 0.0	 1	    1.06457	   -0.90186	 225.0	 1	    1.09616	    0.98667;
	174	 1	 0.0	 0.0	 0.0	 0.0	 1	    1.06642	   -0.48857	 380.0	 1	    1.10526	    1.00000;
	175	 1	 83.4	 -19.9	 0.0	 0.0	 1	    1.08427	   -7.61578	 225.0	 1	    1.08444	    1.00000;
	176	 1	 0.0	 0.0	 0.0	 -64.0	 1	    1.03111	  -13.67608	 20.0	 1	    1.20000	    0.80000;
	177	 1	 0.0	 0.0	 0.0	 0.0	 1	    0.99528	  -14.32420	 63.0	 1	    1.06349	    0.96086;
	178	 1	 0.0	 0.0	 0.0	 0.0	 1	    1.08278	  -13.43440	 225.0	 1	    1.08444	    1.00000;
	179	 1	 0.0	 0.0	 0.0	 0.0	 1	    1.07932	  -11.35231	 380.0	 1	    1.10263	    1.00000;
...
];

%% generator data
%	bus	Pg	Qg	Qmax	Qmin	Vg	mBase	status	Pmax	Pmin	Pc1	Pc2	Qc1min	Qc1max	Qc2min	Qc2max	ramp_agc	ramp_10	ramp_30	ramp_q	apf
mpc.gen = [
	1279	 35.0	 -1.758	 15.0	 -15.0	 1.08624	 100.0	 1	 35.0	 7.0	 0.0	 0.0	 0.0	 0.0	 0.0	 0.0	 0.0	 0.0	 0.0	 0.0	 0.0;
	1210	 32.079	 -2.128	 20.0	 -15.0	 1.04084	 100.0	 1	 36.1	 7.22	 0.0	 0.0	 0.0	 0.0	 0.0	 0.0	 0.0	 0.0	 0.0	 0.0	 0.0;
	751	 9.2	 18.463	 21.0	 -9.0	 1.03128	 100.0	 1	 46.0	 9.2	 0.0	 0.0	 0.0	 0.0	 0.0	 0.0	 0.0	 0.0	 0.0	 0.0	 0.0;
	978	 4.0	 -0.1	 0.1	 -0.1	 1.10485	 100.0	 1	 4.0	 0.0	 0.0	 0.0	 0.0	 0.0	 0.0	 0.0	 0.0	 0.0	 0.0	 0.0	 0.0;
	978	 7.0	 0.9	 1.0	 0.9	 1.10485	 100.0	 1	 7.0	 1.4	 0.0	 0.0	 0.0	 0.0	 0.0	 0.0	 0.0	 0.0	 0.0	 0.0	 0.0;
	158	 2.7	 0.0	 0.0	 0.0	 1.04076	 100.0	 1	 2.7	 0.0	 0.0	 0.0	 0.0	 0.0	 0.0	 0.0	 0.0	 0.0	 0.0	 0.0	 0.0;
	1217	 13.0	 0.027	 5.0	 -5.0	 1.05377	 100.0	 1	 13.0	 2.6	 0.0	 0.0	 0.0	 0.0	 0.0	 0.0	 0.0	 0.0	 0.0	 0.0	 0.0;
	367	 50.0	 8.384	 27.0	 -9.0	 1.0363	 100.0	 1	 50.0	 10.0	 0.0	 0.0	 0.0	 0.0	 0.0	 0.0	 0.0	 0.0	 0.0	 0.0	 0.0;
	1127	 16.0	 0.0	 0.0	 0.0	 1.01058	 100.0	 1	 16.0	 3.2	 0.0	 0.0	 0.0	 0.0	 0.0	 0.0	 0.0	 0.0	 0.0	 0.0	 0.0;
	460	 12.4	 -40.0	 40.0	 -40.0	 1.03117	 100.0	 1	 62.0	 12.4	 0.0	 0.0	 0.0	 0.0	 0.0	 0.0	 0.0	 0.0	 0.0	 0.0	 0.0;
	968	 3.608	 -10.0	 10.0	 -10.0	 1.04079	 100.0	 1	 18.0	 3.6	 0.0	 0.0	 0.0	 0.0	 0.0	 0.0	 0.0	 0.0	 0.0	 0.0	 0.0;
	1827	 22.0	 -12.0	 7.0	 -12.0	 1.07883	 100.0	 1	 22.0	 4.4	 0.0	 0.0	 0.0	 0.0	 0.0	 0.0	 0.0	 0.0	 0.0	 0.0	 0.0;
	1466	 40.0	 -15.0	 5.0	 -15.0	 0.99843	 100.0	 1	 40.0	 1.0	 0.0	 0.0	 0.0	 0.0	 0.0	 0.0	 0.0	 0.0	 0.0	 0.0	 0.0;
	2863	 21.136	 -6.0	 6.0	 -6.0	 1.01957	 100.0	 1	 40.0	 1.0	 0.0	 0.0	 0.0	 0.0	 0.0	 0.0	 0.0	 0.0	 0.0	 0.0	 0.0;
	1466	 40.0	 -15.0	 5.0	 -15.0	 0.99843	 100.0	 1	 40.0	 1.0	 0.0	 0.0	 0.0	 0.0	 0.0	 0.0	 0.0	 0.0	 0.0	 0.0	 0.0;
	2863	 21.136	 -6.0	 6.0	 -6.0	 1.01957	 100.0	 1	 40.0	 1.0	 0.0	 0.0	 0.0	 0.0	 0.0	 0.0	 0.0	 0.0	 0.0	 0.0	 0.0;
	1072	 2.4	 0.9	 1.0	 0.9	 1.10506	 100.0	 1	 12.0	 2.4	 0.0	 0.0	 0.0	 0.0	 0.0	 0.0	 0.0	 0.0	 0.0	 0.0	 0.0;
	1072	 0.0	 0.0	 1.0	 0.9	 1.10506	 100.0	 0	 14.0	 2.8	 0.0	 0.0	 0.0	 0.0	 0.0	 0.0	 0.0	 0.0	 0.0	 0.0	 0.0;
	1072	 2.4	 0.9	 1.0	 0.9	 1.10506	 100.0	 1	 12.0	 2.4	 0.0	 0.0	 0.0	 0.0	 0.0	 0.0	 0.0	 0.0	 0.0	 0.0	 0.0;
	642	 10.33	 -3.0	 3.0	 -3.0	 1.03287	 100.0	 1	 10.33	 2.07	 0.0	 0.0	 0.0	 0.0	 0.0	 0.0	 0.0	 0.0	 0.0	 0.0	 0.0;
	642	 10.33	 -3.0	 3.0	 -3.0	 1.03287	 100.0	 1	 10.33	 2.07	 0.0	 0.0	 0.0	 0.0	 0.0	 0.0	 0.0	 0.0	 0.0	 0.0	 0.0;
	542	 50.0	 3.707	 22.0	 -10.0	 1.0453	 100.0	 1	 50.0	 5.0	 0.0	 0.0	 0.0	 0.0	 0.0	 0.0	 0.0	 0.0	 0.0	 0.0	 0.0;
	773	 12.0	 0.0	 0.0	 0.0	 1.04105	 100.0	 1	 12.0	 2.4	 0.0	 0.0	 0.0	 0.0	 0.0	 0.0	 0.0	 0.0	 0.0	 0.0	 0.0;
	399	 13.8	 0.0	 0.0	 0.0	 1.0205	 100.0	 1	 13.8	 2.76	 0.0	 0.0	 0.0	 0.0	 0.0	 0.0	 0.0	 0.0	 0.0	 0.0	 0.0;
	399	 1.2	 0.0	 0.0	 0.0	 1.0205	 100.0	 1	 1.2	 0.0	 0.0	 0.0	 0.0	 0.0	 0.0	 0.0	 0.0	 0.0	 0.0	 0.0	 0.0;
	21	 24.0	 0.0	 0.0	 0.0	 1.06394	 100.0	 1	 24.0	 4.8	 0.0	 0.0	 0.0	 0.0	 0.0	 0.0	 0.0	 0.0	 0.0	 0.0	 0.0;
	21	 27.6	 0.0	 0.0	 0.0	 1.06394	 100.0	 1	 27.6	 5.52	 0.0	 0.0	 0.0	 0.0	 0.0	 0.0	 0.0	 0.0	 0.0	 0.0	 0.0;
	899	 3.6	 0.0	 0.0	 0.0	 1.03608	 100.0	 1	 18.0	 3.6	 0.0	 0.0	 0.0	 0.0	 0.0	 0.0	 0.0	 0.0	 0.0	 0.0	 0.0;
	899	 4.2	 0.0	 0.0	 0.0	 1.03608	 100.0	 1	 21.0	 4.2	 0.0	 0.0	 0.0	 0.0	 0.0	 0.0	 0.0	 0.0	 0.0	 0.0	 0.0;
	2618	 3.896	 0.0	 0.0	 0.0	 1.01526	 100.0	 1	 6.0	 1.2	 0.0	 0.0	 0.0	 0.0	 0.0	 0.0	 0.0	 0.0	 0.0	 0.0	 0.0;
	2618	 30.724	 -5.438	 10.0	 -6.0	 1.01526	 100.0	 1	 37.5	 7.5	 0.0	 0.0	 0.0	 0.0	 0.0	 0.0	 0.0	 0.0	 0.0	 0.0	 0.0;
	285	 3.177	 0.0	 0.0	 0.0	 1.01651	 100.0	 1	 6.0	 1.2	 0.0	 0.0	 0.0	 0.0	 0.0	 0.0	 0.0	 0.0	 0.0	 0.0	 0.0;
	285	 12.708	 -0.866	 10.0	 -6.0	 1.01651	 100.0	 1	 37.5	 7.5	 0.0	 0.0	 0.0	 0.0	 0.0	 0.0	 0.0	 0.0	 0.0	 0.0	 0.0;
	135	 11.221	 -6.0	 5.0	 -6.0	 1.04459	 100.0	 1	 13.0	 2.6	 0.0	 0.0	 0.0	 0.0	 0.0	 0.0	 0.0	 0.0	 0.0	 0.0	 0.0;
	53	 18.0	 0.8	 0.8	 -0.8	 1.03073	 100.0	 1	 18.0	 3.6	 0.0	 0.0	 0.0	 0.0	 0.0	 0.0	 0.0	 0.0	 0.0	 0.0	 0.0;
	53	 18.0	 0.8	 0.8	 -0.8	 1.03073	 100.0	 1	 18.0	 3.6	 0.0	 0.0	 0.0	 0.0	 0.0	 0.0	 0.0	 0.0	 0.0	 0.0	 0.0;
	596	 4.0	 0.0	 0.0	 0.0	 1.06991	 100.0	 1	 4.0	 0.0	 0.0	 0.0	 0.0	 0.0	 0.0	 0.0	 0.0	 0.0	 0.0	 0.0	 0.0;
	958	 4.6	 0.0	 0.0	 0.0	 1.01077	 100.0	 1	 4.6	 0.0	 0.0	 0.0	 0.0	 0.0	 0.0	 0.0	 0.0	 0.0	 0.0	 0.0	 0.0;
	1679	 14.599	 -3.977	 6.0	 -4.0	 1.00361	 100.0	 1	 21.0	 4.2	 0.0	 0.0	 0.0	 0.0	 0.0	 0.0	 0.0	 0.0	 0.0	 0.0	 0.0;
	1679	 14.599	 -4.477	 6.7	 -4.5	 1.00361	 100.0	 1	 21.0	 4.2	 0.0	 0.0	 0.0	 0.0	 0.0	 0.0	 0.0	 0.0	 0.0	 0.0	 0.0;
	1157	 7.2	 0.0	 0.0	 0.0	 1.02475	 100.0	 1	 7.2	 1.44	 0.0	 0.0	 0.0	 0.0	 0.0	 0.0	 0.0	 0.0	 0.0	 0.0	 0.0;
	513	 6.109	 1.0	 5.0	 1.0	 1.00069	 100.0	 1	 11.0	 2.2	 0.0	 0.0	 0.0	 0.0	 0.0	 0.0	 0.0	 0.0	 0.0	 0.0	 0.0;
	513	 6.109	 1.0	 5.0	 1.0	 1.00069	 100.0	 1	 11.0	 2.2	 0.0	 0.0	 0.0	 0.0	 0.0	 0.0	 0.0	 0.0	 0.0	 0.0	 0.0;
	371	 1.6	 0.886	 5.0	 -5.0	 1.01522	 100.0	 1	 8.0	 1.6	 0.0	 0.0	 0.0	 0.0	 0.0	 0.0	 0.0	 0.0	 0.0	 0.0	 0.0;
	371	 1.6	 0.886	 5.0	 -5.0	 1.01522	 100.0	 1	 8.0	 1.6	 0.0	 0.0	 0.0	 0.0	 0.0	 0.0	 0.0	 0.0	 0.0	 0.0	 0.0;
	976	 7.0	 -5.8	 12.0	 -15.0	 1.00923	 100.0	 1	 35.0	 7.0	 0.0	 0.0	 0.0	 0.0	 0.0	 0.0	 0.0	 0.0	 0.0	 0.0	 0.0;
	976	 7.0	 -5.8	 12.0	 -15.0	 1.00923	 100.0	 1	 35.0	 7.0	 0.0	 0.0	 0.0	 0.0	 0.0	 0.0	 0.0	 0.0	 0.0	 0.0	 0.0;
	2754	 11.5	 0.0	 0.0	 0.0	 1.04621	 100.0	 1	 11.5	 2.3	 0.0	 0.0	 0.0	 0.0	 0.0	 0.0	 0.0	 0.0	 0.0	 0.0	 0.0;
	749	 1.7	 -0.006	 5.0	 -5.0	 0.89185	 100.0	 1	 8.5	 1.7	 0.0	 0.0	 0.0	 0.0	 0.0	 0.0	 0.0	 0.0	 0.0	 0.0	 0.0;
	1188	 20.0	 1.999	 2.0	 1.9	 1.1026	 100.0	 1	 20.0	 4.0	 0.0	 0.0	 0.0	 0.0	 0.0	 0.0	 0.0	 0.0	 0.0	 0.0	 0.0;
	1254	 4.8	 -7.0	 7.0	 -7.0	 1.02645	 100.0	 1	 24.0	 4.8	 0.0	 0.0	 0.0	 0.0	 0.0	 0.0	 0.0	 0.0	 0.0	 0.0	 0.0;
	252	 2.2	 1.216	 8.0	 -5.0	 0.89142	 100.0	 1	 11.0	 2.2	 0.0	 0.0	 0.0	 0.0	 0.0	 0.0	 0.0	 0.0	 0.0	 0.0	 0.0;
	252	 1.8	 0.296	 6.0	 -5.0	 0.89142	 100.0	 1	 9.0	 1.8	 0.0	 0.0	 0.0	 0.0	 0.0	 0.0	 0.0	 0.0	 0.0	 0.0	 0.0;
	252	 2.2	 1.216	 8.0	 -5.0	 0.89142	 100.0	 1	 11.0	 2.2	 0.0	 0.0	 0.0	 0.0	 0.0	 0.0	 0.0	 0.0	 0.0	 0.0	 0.0;
	252	 1.8	 0.296	 6.0	 -5.0	 0.89142	 100.0	 1	 9.0	 1.8	 0.0	 0.0	 0.0	 0.0	 0.0	 0.0	 0.0	 0.0	 0.0	 0.0	 0.0;
	504	 12.4	 6.027	 6.5	 -6.5	 0.90766	 100.0	 1	 12.4	 2.48	 0.0	 0.0	 0.0	 0.0	 0.0	 0.0	 0.0	 0.0	 0.0	 0.0	 0.0;
	115	 25.3	 0.0	 0.0	 0.0	 1.06784	 100.0	 1	 25.3	 5.06	 0.0	 0.0	 0.0	 0.0	 0.0	 0.0	 0.0	 0.0	 0.0	 0.0	 0.0;
	967	 1.523	 0.0	 0.0	 0.0	 1.04109	 100.0	 1	 2.3	 0.0	 0.0	 0.0	 0.0	 0.0	 0.0	 0.0	 0.0	 0.0	 0.0	 0.0	 0.0;
	1642	 3.0	 0.12	 1.0	 -1.0	 1.04846	 100.0	 1	 3.0	 0.0	 0.0	 0.0	 0.0	 0.0	 0.0	 0.0	 0.0	 0.0	 0.0	 0.0	 0.0;
	1811	 9.0	 -5.5	 5.5	 -5.5	 1.03047	 100.0	 1	 9.0	 1.8	 0.0	 0.0	 0.0	 0.0	 0.0	 0.0	 0.0	 0.0	 0.0	 0.0	 0.0;
	2634	 14.0	 -7.0	 7.0	 -7.0	 1.03587	 100.0	 1	 14.0	 2.8	 0.0	 0.0	 0.0	 0.0	 0.0	 0.0	 0.0	 0.0	 0.0	 0.0	 0.0;
	326	 14.0	 -7.0	 7.0	 -7.0	 1.03528	 100.0	 1	 14.0	 2.8	 0.0	 0.0	 0.0	 0.0	 0.0	 0.0	 0.0	 0.0	 0.0	 0.0	 0.0;
	1829	 12.8	 -7.7	 7.7	 -7.7	 1.02186	 100.0	 1	 12.8	 2.56	 0.0	 0.0	 0.0	 0.0	 0.0	 0.0	 0.0	 0.0	 0.0	 0.0	 0.0;
	1314	 15.992	 -1.702	 19.0	 -19.0	 1.10477	 100.0	 1	 39.0	 7.8	 0.0	 0.0	 0.0	 0.0	 0.0	 0.0	 0.0	 0.0	 0.0	 0.0	 0.0;
	71	 23.306	 -2.992	 10.0	 -4.0	 1.10442	 100.0	 1	 30.0	 6.0	 0.0	 0.0	 0.0	 0.0	 0.0	 0.0	 0.0	 0.0	 0.0	 0.0	 0.0;
	93	 6.0	 1.925	 2.0	 1.9	 1.10368	 100.0	 1	 6.0	 1.2	 0.0	 0.0	 0.0	 0.0	 0.0	 0.0	 0.0	 0.0	 0.0	 0.0	 0.0;
	129	 11.0	 -4.0	 4.0	 -4.0	 1.01291	 100.0	 1	 11.0	 2.2	 0.0	 0.0	 0.0	 0.0	 0.0	 0.0	 0.0	 0.0	 0.0	 0.0	 0.0;
	1594	 12.0	 -3.246	 5.0	 -5.0	 1.05185	 100.0	 1	 12.0	 2.4	 0.0	 0.0	 0.0	 0.0	 0.0	 0.0	 0.0	 0.0	 0.0	 0.0	 0.0;
	1594	 12.0	 -3.246	 5.0	 -5.0	 1.05185	 100.0	 1	 12.0	 2.4	 0.0	 0.0	 0.0	 0.0	 0.0	 0.0	 0.0	 0.0	 0.0	 0.0	 0.0;
	1354	 5.0	 -1.823	 2.0	 -2.0	 1.04208	 100.0	 1	 5.0	 0.0	 0.0	 0.0	 0.0	 0.0	 0.0	 0.0	 0.0	 0.0	 0.0	 0.0	 0.0;
	1133	 17.25	 0.0	 0.0	 0.0	 1.01826	 100.0	 1	 17.25	 3.45	 0.0	 0.0	 0.0	 0.0	 0.0	 0.0	 0.0	 0.0	 0.0	 0.0	 0.0;
	1405	 7.56	 1.325	 12.0	 -8.0	 1.06654	 100.0	 1	 37.8	 7.56	 0.0	 0.0	 0.0	 0.0	 0.0	 0.0	 0.0	 0.0	 0.0	 0.0	 0.0;
	2850	 7.56	 1.325	 12.0	 -8.0	 1.06654	 100.0	 1	 37.8	 7.56	 0.0	 0.0	 0.0	 0.0	 0.0	 0.0	 0.0	 0.0	 0.0	 0.0	 0.0;
	2849	 7.56	 1.325	 12.0	 -8.0	 1.06654	 100.0	 1	 37.8	 7.56	 0.0	 0.0	 0.0	 0.0	 0.0	 0.0	 0.0	 0.0	 0.0	 0.0	 0.0;
	1122	 6.9	 0.0	 0.0	 0.0	 1.01118	 100.0	 1	 6.9	 1.38	 0.0	 0.0	 0.0	 0.0	 0.0	 0.0	 0.0	 0.0	 0.0	 0.0	 0.0;
	1708	 45.0	 -6.817	 27.0	 -9.0	 1.01848	 100.0	 1	 45.0	 44.0	 0.0	 0.0	 0.0	 0.0	 0.0	 0.0	 0.0	 0.0	 0.0	 0.0	 0.0;
	1708	 45.0	 -6.817	 27.0	 -9.0	 1.01848	 100.0	 1	 45.0	 44.0	 0.0	 0.0	 0.0	 0.0	 0.0	 0.0	 0.0	 0.0	 0.0	 0.0	 0.0;
	1658	 5.981	 0.0	 0.0	 0.0	 1.03537	 100.0	 1	 29.9	 5.98	 0.0	 0.0	 0.0	 0.0	 0.0	 0.0	 0.0	 0.0	 0.0	 0.0	 0.0;
	2884	 13.7	 0.0	 0.0	 0.0	 1.05595	 100.0	 1	 13.7	 2.74	 0.0	 0.0	 0.0	 0.0	 0.0	 0.0	 0.0	 0.0	 0.0	 0.0	 0.0;
	1154	 4.161	 0.0	 0.0	 0.0	 1.01769	 100.0	 1	 20.8	 4.16	 0.0	 0.0	 0.0	 0.0	 0.0	 0.0	 0.0	 0.0	 0.0	 0.0	 0.0;
	231	 8.3	 8.3	 8.3	 -8.3	 1.01256	 100.0	 1	 8.3	 1.66	 0.0	 0.0	 0.0	 0.0	 0.0	 0.0	 0.0	 0.0	 0.0	 0.0	 0.0;
	2887	 23.7	 7.0	 7.0	 -3.0	 1.05833	 100.0	 1	 23.7	 4.74	 0.0	 0.0	 0.0	 0.0	 0.0	 0.0	 0.0	 0.0	 0.0	 0.0	 0.0;
	2888	 23.7	 7.0	 7.0	 -3.0	 1.05833	 100.0	 1	 23.7	 4.74	 0.0	 0.0	 0.0	 0.0	 0.0	 0.0	 0.0	 0.0	 0.0	 0.0	 0.0;
	2889	 23.7	 7.0	 7.0	 -3.0	 1.05833	 100.0	 1	 23.7	 4.74	 0.0	 0.0	 0.0	 0.0	 0.0	 0.0	 0.0	 0.0	 0.0	 0.0	 0.0;
	1666	 23.7	 7.0	 7.0	 -3.0	 1.05833	 100.0	 1	 23.7	 4.74	 0.0	 0.0	 0.0	 0.0	 0.0	 0.0	 0.0	 0.0	 0.0	 0.0	 0.0;
	499	 10.757	 0.9	 1.0	 0.9	 1.07933	 100.0	 1	 17.0	 3.4	 0.0	 0.0	 0.0	 0.0	 0.0	 0.0	 0.0	 0.0	 0.0	 0.0	 0.0;
	499	 0.0	 0.0	 1.0	 0.9	 1.07933	 100.0	 0	 7.0	 1.4	 0.0	 0.0	 0.0	 0.0	 0.0	 0.0	 0.0	 0.0	 0.0	 0.0	 0.0;
	499	 10.757	 0.9	 1.0	 0.9	 1.07933	 100.0	 1	 17.0	 3.4	 0.0	 0.0	 0.0	 0.0	 0.0	 0.0	 0.0	 0.0	 0.0	 0.0	 0.0;
	2709	 24.0	 4.0	 4.0	 -4.0	 1.04805	 100.0	 1	 24.0	 4.8	 0.0	 0.0	 0.0	 0.0	 0.0	 0.0	 0.0	 0.0	 0.0	 0.0	 0.0;
	709	 24.0	 4.0	 4.0	 -4.0	 1.04805	 100.0	 1	 24.0	 4.8	 0.0	 0.0	 0.0	 0.0	 0.0	 0.0	 0.0	 0.0	 0.0	 0.0	 0.0;
	2710	 24.0	 4.0	 4.0	 -4.0	 1.04805	 100.0	 1	 24.0	 4.8	 0.0	 0.0	 0.0	 0.0	 0.0	 0.0	 0.0	 0.0	 0.0	 0.0	 0.0;
	2708	 24.0	 4.0	 4.0	 -4.0	 1.04805	 100.0	 1	 24.0	 4.8	 0.0	 0.0	 0.0	 0.0	 0.0	 0.0	 0.0	 0.0	 0.0	 0.0	 0.0;
	1280	 16.47	 0.0	 0.0	 0.0	 1.01442	 100.0	 1	 18.0	 3.6	 0.0	 0.0	 0.0	 0.0	 0.0	 0.0	 0.0	 0.0	 0.0	 0.0	 0.0;
	1493	 0.0	 0.0	 11.0	 -11.0	 0.89118	 100.0	 0	 18.0	 3.6	 0.0	 0.0	 0.0	 0.0	 0.0	 0.0	 0.0	 0.0	 0.0	 0.0	 0.0;
	745	 8.117	 -2.216	 8.0	 -18.0	 1.03286	 100.0	 1	 29.0	 5.8	 0.0	 0.0	 0.0	 0.0	 0.0	 0.0	 0.0	 0.0	 0.0	 0.0	 0.0;
	2727	 9.702	 -3.158	 5.0	 -18.0	 1.03373	 100.0	 1	 29.0	 5.8	 0.0	 0.0	 0.0	 0.0	 0.0	 0.0	 0.0	 0.0	 0.0	 0.0	 0.0;
	1445	 55.0	 0.0	 0.0	 0.0	 1.05549	 100.0	 1	 55.0	 11.0	 0.0	 0.0	 0.0	 0.0	 0.0	 0.0	 0.0	 0.0	 0.0	 0.0	 0.0;
	564	 2.0	 0.0	 0.0	 0.0	 1.031	 100.0	 1	 10.0	 2.0	 0.0	 0.0	 0.0	 0.0	 0.0	 0.0	 0.0	 0.0	 0.0	 0.0	 0.0;
	1047	 12.0	 0.0	 0.0	 0.0	 1.06113	 100.0	 1	 12.0	 2.4	 0.0	 0.0	 0.0	 0.0	 0.0	 0.0	 0.0	 0.0	 0.0	 0.0	 0.0;
	1047	 2.0	 0.0	 0.0	 0.0	 1.06113	 100.0	 1	 2.0	 0.0	 0.0	 0.0	 0.0	 0.0	 0.0	 0.0	 0.0	 0.0	 0.0	 0.0	 0.0;
	1335	 2.0	 -1.0	 3.0	 -1.0	 1.03081	 100.0	 1	 2.0	 0.0	 0.0	 0.0	 0.0	 0.0	 0.0	 0.0	 0.0	 0.0	 0.0	 0.0	 0.0;
	2624	 17.321	 -6.319	 15.0	 -17.0	 1.00861	 100.0	 1	 31.0	 6.2	 0.0	 0.0	 0.0	 0.0	 0.0	 0.0	 0.0	 0.0	 0.0	 0.0	 0.0;
	298	 6.427	 -14.593	 15.0	 -17.0	 1.0055	 100.0	 1	 31.0	 6.2	 0.0	 0.0	 0.0	 0.0	 0.0	 0.0	 0.0	 0.0	 0.0	 0.0	 0.0;
	298	 6.427	 -14.593	 15.0	 -17.0	 1.0055	 100.0	 1	 31.0	 6.2	 0.0	 0.0	 0.0	 0.0	 0.0	 0.0	 0.0	 0.0	 0.0	 0.0	 0.0;
	2625	 6.427	 -14.593	 15.0	 -17.0	 1.0055	 100.0	 1	 31.0	 6.2	 0.0	 0.0	 0.0	 0.0	 0.0	 0.0	 0.0	 0.0	 0.0	 0.0	 0.0;
	2625	 6.427	 -14.593	 15.0	 -17.0	 1.0055	 100.0	 1	 31.0	 6.2	 0.0	 0.0	 0.0	 0.0	 0.0	 0.0	 0.0	 0.0	 0.0	 0.0	 0.0;
	2624	 17.321	 -6.319	 15.0	 -17.0	 1.00861	 100.0	 1	 31.0	 6.2	 0.0	 0.0	 0.0	 0.0	 0.0	 0.0	 0.0	 0.0	 0.0	 0.0	 0.0;
	2947	 17.471	 -0.0	 0.0	 -0.01	 1.06117	 100.0	 1	 24.0	 4.8	 0.0	 0.0	 0.0	 0.0	 0.0	 0.0	 0.0	 0.0	 0.0	 0.0	 0.0;
	2718	 17.758	 8.0	 8.0	 -7.0	 1.06985	 100.0	 1	 24.0	 4.8	 0.0	 0.0	 0.0	 0.0	 0.0	 0.0	 0.0	 0.0	 0.0	 0.0	 0.0;
	2720	 17.758	 8.0	 8.0	 -7.0	 1.06985	 100.0	 1	 24.0	 4.8	 0.0	 0.0	 0.0	 0.0	 0.0	 0.0	 0.0	 0.0	 0.0	 0.0	 0.0;
	741	 17.758	 8.0	 8.0	 -7.0	 1.06985	 100.0	 1	 24.0	 4.8	 0.0	 0.0	 0.0	 0.0	 0.0	 0.0	 0.0	 0.0	 0.0	 0.0	 0.0;
	2719	 17.758	 8.0	 8.0	 -7.0	 1.06985	 100.0	 1	 24.0	 4.8	 0.0	 0.0	 0.0	 0.0	 0.0	 0.0	 0.0	 0.0	 0.0	 0.0	 0.0;
	2721	 17.758	 8.0	 8.0	 -7.0	 1.06985	 100.0	 1	 24.0	 4.8	 0.0	 0.0	 0.0	 0.0	 0.0	 0.0	 0.0	 0.0	 0.0	 0.0	 0.0;
	283	 23.5	 -8.0	 8.0	 -8.0	 1.06538	 100.0	 1	 23.5	 4.7	 0.0	 0.0	 0.0	 0.0	 0.0	 0.0	 0.0	 0.0	 0.0	 0.0	 0.0;
	1506	 21.114	 0.71	 6.0	 -11.0	 1.03946	 100.0	 1	 27.0	 5.4	 0.0	 0.0	 0.0	 0.0	 0.0	 0.0	 0.0	 0.0	 0.0	 0.0	 0.0;
	1506	 21.114	 0.71	 6.0	 -11.0	 1.03946	 100.0	 1	 27.0	 5.4	 0.0	 0.0	 0.0	 0.0	 0.0	 0.0	 0.0	 0.0	 0.0	 0.0	 0.0;
	1847	 32.0	 4.8	 12.0	 -8.0	 1.0384	 100.0	 1	 32.0	 6.4	 0.0	 0.0	 0.0	 0.0	 0.0	 0.0	 0.0	 0.0	 0.0	 0.0	 0.0;
	1398	 20.02	 0.0	 0.0	 0.0	 1.0654	 100.0	 1	 20.02	 4.0	 0.0	 0.0	 0.0	 0.0	 0.0	 0.0	 0.0	 0.0	 0.0	 0.0	 0.0;
	1398	 20.35	 0.0	 0.0	 0.0	 1.0654	 100.0	 1	 20.35	 4.07	 0.0	 0.0	 0.0	 0.0	 0.0	 0.0	 0.0	 0.0	 0.0	 0.0	 0.0;
	225	 37.384	 -1.335	 45.0	 -45.0	 1.01907	 100.0	 1	 45.0	 9.0	 0.0	 0.0	 0.0	 0.0	 0.0	 0.0	 0.0	 0.0	 0.0	 0.0	 0.0;
	225	 37.384	 -1.335	 45.0	 -45.0	 1.01907	 100.0	 1	 45.0	 9.0	 0.0	 0.0	 0.0	 0.0	 0.0	 0.0	 0.0	 0.0	 0.0	 0.0	 0.0;
	1607	 1.74	 0.0	 0.0	 0.0	 1.07277	 100.0	 1	 1.74	 0.0	 0.0	 0.0	 0.0	 0.0	 0.0	 0.0	 0.0	 0.0	 0.0	 0.0	 0.0;
	314	 9.559	 -1.103	 10.0	 -10.0	 0.90928	 100.0	 1	 20.0	 4.0	 0.0	 0.0	 0.0	 0.0	 0.0	 0.0	 0.0	 0.0	 0.0	 0.0	 0.0;
	2680	 98.802	 10.492	 100.0	 -60.0	 1.08195	 100.0	 1	 239.0	 44.0	 0.0	 0.0	 0.0	 0.0	 0.0	 0.0	 0.0	 0.0	 0.0	 0.0	 0.0;
	582	 0.0	 0.0	 70.0	 -45.0	 0.94161	 100.0	 0	 169.0	 82.0	 0.0	 0.0	 0.0	 0.0	 0.0	 0.0	 0.0	 0.0	 0.0	 0.0	 0.0;
	2978	 0.0	 0.0	 70.0	 -45.0	 0.94161	 100.0	 0	 169.0	 82.0	 0.0	 0.0	 0.0	 0.0	 0.0	 0.0	 0.0	 0.0	 0.0	 0.0	 0.0;
	2977	 98.802	 10.492	 100.0	 -60.0	 1.08195	 100.0	 1	 239.0	 44.0	 0.0	 0.0	 0.0	 0.0	 0.0	 0.0	 0.0	 0.0	 0.0	 0.0	 0.0;
	240	 47.802	 -75.0	 80.0	 -75.0	 1.03585	 100.0	 1	 239.0	 47.8	 0.0	 0.0	 0.0	 0.0	 0.0	 0.0	 0.0	 0.0	 0.0	 0.0	 0.0;
	1655	 12.0	 0.0	 0.0	 0.0	 1.03376	 100.0	 1	 12.0	 2.4	 0.0	 0.0	 0.0	 0.0	 0.0	 0.0	 0.0	 0.0	 0.0	 0.0	 0.0;
	1655	 4.0	 0.0	 0.0	 0.0	 1.03376	 100.0	 1	 4.0	 0.0	 0.0	 0.0	 0.0	 0.0	 0.0	 0.0	 0.0	 0.0	 0.0	 0.0	 0.0;
	1150	 54.0	 0.0	 0.0	 0.0	 1.05944	 100.0	 1	 54.0	 10.8	 0.0	 0.0	 0.0	 0.0	 0.0	 0.0	 0.0	 0.0	 0.0	 0.0	 0.0;
	1447	 7.0	 -0.288	 2.0	 -3.0	 1.02359	 100.0	 1	 7.0	 1.4	 0.0	 0.0	 0.0	 0.0	 0.0	 0.0	 0.0	 0.0	 0.0	 0.0	 0.0;
	906	 0.0	 0.0	 8.0	 -8.0	 1.03117	 100.0	 0	 21.0	 4.2	 0.0	 0.0	 0.0	 0.0	 0.0	 0.0	 0.0	 0.0	 0.0	 0.0	 0.0;
	1474	 0.0	 -0.0	 1.0	 -1.0	 0.99368	 100.0	 0	 2.0	 0.0	 0.0	 0.0	 0.0	 0.0	 0.0	 0.0	 0.0	 0.0	 0.0	 0.0	 0.0;
	1474	 8.0	 -3.0	 3.0	 -3.0	 0.99368	 100.0	 1	 8.0	 1.6	 0.0	 0.0	 0.0	 0.0	 0.0	 0.0	 0.0	 0.0	 0.0	 0.0	 0.0;
	1474	 8.0	 -3.0	 3.0	 -3.0	 0.99368	 100.0	 1	 8.0	 1.6	 0.0	 0.0	 0.0	 0.0	 0.0	 0.0	 0.0	 0.0	 0.0	 0.0	 0.0;
	963	 8.9	 -2.0	 1.0	 -2.0	 1.02114	 100.0	 1	 8.9	 1.78	 0.0	 0.0	 0.0	 0.0	 0.0	 0.0	 0.0	 0.0	 0.0	 0.0	 0.0;
	962	 22.0	 0.0	 0.0	 0.0	 1.05218	 100.0	 1	 22.0	 4.4	 0.0	 0.0	 0.0	 0.0	 0.0	 0.0	 0.0	 0.0	 0.0	 0.0	 0.0;
	923	 11.351	 -1.614	 5.0	 -5.0	 1.04485	 100.0	 1	 12.0	 2.4	 0.0	 0.0	 0.0	 0.0	 0.0	 0.0	 0.0	 0.0	 0.0	 0.0	 0.0;
	1153	 3.2	 -17.3	 17.3	 -17.3	 1.01266	 100.0	 1	 16.0	 3.2	 0.0	 0.0	 0.0	 0.0	 0.0	 0.0	 0.0	 0.0	 0.0	 0.0	 0.0;
	1153	 3.36	 -10.0	 10.0	 -10.0	 1.01266	 100.0	 1	 16.8	 3.36	 0.0	 0.0	 0.0	 0.0	 0.0	 0.0	 0.0	 0.0	 0.0	 0.0	 0.0;
	274	 6.7	 -0.267	 3.7	 -3.7	 1.01181	 100.0	 1	 6.7	 1.34	 0.0	 0.0	 0.0	 0.0	 0.0	 0.0	 0.0	 0.0	 0.0	 0.0	 0.0;
	274	 5.6	 -0.176	 3.0	 -3.0	 1.01181	 100.0	 1	 5.6	 1.12	 0.0	 0.0	 0.0	 0.0	 0.0	 0.0	 0.0	 0.0	 0.0	 0.0	 0.0;
	1776	 10.0	 5.0	 5.0	 -5.0	 1.03557	 100.0	 1	 10.0	 2.0	 0.0	 0.0	 0.0	 0.0	 0.0	 0.0	 0.0	 0.0	 0.0	 0.0	 0.0;
	1776	 10.0	 5.0	 5.0	 -5.0	 1.03557	 100.0	 1	 10.0	 2.0	 0.0	 0.0	 0.0	 0.0	 0.0	 0.0	 0.0	 0.0	 0.0	 0.0	 0.0;
	184	 16.524	 -1.578	 8.0	 -17.0	 1.05328	 100.0	 1	 23.4	 4.68	 0.0	 0.0	 0.0	 0.0	 0.0	 0.0	 0.0	 0.0	 0.0	 0.0	 0.0;
	1657	 26.0	 0.28	 16.0	 -17.0	 1.04572	 100.0	 1	 26.0	 5.2	 0.0	 0.0	 0.0	 0.0	 0.0	 0.0	 0.0	 0.0	 0.0	 0.0	 0.0;
	1657	 26.0	 0.28	 16.0	 -17.0	 1.04572	 100.0	 1	 26.0	 5.2	 0.0	 0.0	 0.0	 0.0	 0.0	 0.0	 0.0	 0.0	 0.0	 0.0	 0.0;
	1761	 0.0	 -0.099	 0.1	 -0.1	 1.10489	 100.0	 1	 2.5	 0.0	 0.0	 0.0	 0.0	 0.0	 0.0	 0.0	 0.0	 0.0	 0.0	 0.0	 0.0;
	1761	 2.2	 0.901	 1.0	 0.9	 1.10489	 100.0	 1	 11.0	 2.2	 0.0	 0.0	 0.0	 0.0	 0.0	 0.0	 0.0	 0.0	 0.0	 0.0	 0.0;
	1868	 12.939	 -18.0	 18.0	 -18.0	 0.97604	 100.0	 1	 30.0	 6.0	 0.0	 0.0	 0.0	 0.0	 0.0	 0.0	 0.0	 0.0	 0.0	 0.0	 0.0;
	1868	 12.939	 -18.0	 18.0	 -18.0	 0.97604	 100.0	 1	 30.0	 6.0	 0.0	 0.0	 0.0	 0.0	 0.0	 0.0	 0.0	 0.0	 0.0	 0.0	 0.0;
	731	 0.0	 0.0	 26.0	 -26.0	 1.01648	 100.0	 0	 43.0	 8.6	 0.0	 0.0	 0.0	 0.0	 0.0	 0.0	 0.0	 0.0	 0.0	 0.0	 0.0;
	2715	 0.0	 0.0	 20.0	 -20.0	 1.01617	 100.0	 0	 38.0	 7.6	 0.0	 0.0	 0.0	 0.0	 0.0	 0.0	 0.0	 0.0	 0.0	 0.0	 0.0;
	1263	 16.55	 0.56	 14.0	 -14.0	 1.01113	 100.0	 1	 23.1	 4.62	 0.0	 0.0	 0.0	 0.0	 0.0	 0.0	 0.0	 0.0	 0.0	 0.0	 0.0;
	1263	 16.55	 0.56	 14.0	 -14.0	 1.01113	 100.0	 1	 23.1	 4.62	 0.0	 0.0	 0.0	 0.0	 0.0	 0.0	 0.0	 0.0	 0.0	 0.0	 0.0;
	161	 11.337	 0.064	 5.0	 -5.0	 1.0297	 100.0	 1	 18.0	 3.6	 0.0	 0.0	 0.0	 0.0	 0.0	 0.0	 0.0	 0.0	 0.0	 0.0	 0.0;
	604	 10.2	 1.199	 6.0	 -6.0	 1.00971	 100.0	 1	 10.2	 2.04	 0.0	 0.0	 0.0	 0.0	 0.0	 0.0	 0.0	 0.0	 0.0	 0.0	 0.0;
	918	 26.0	 0.0	 0.0	 0.0	 1.04949	 100.0	 1	 26.0	 5.2	 0.0	 0.0	 0.0	 0.0	 0.0	 0.0	 0.0	 0.0	 0.0	 0.0	 0.0;
	1760	 2.3	 -1.0	 1.0	 -1.0	 1.03567	 100.0	 1	 11.5	 2.3	 0.0	 0.0	 0.0	 0.0	 0.0	 0.0	 0.0	 0.0	 0.0	 0.0	 0.0;
	1760	 2.3	 -1.0	 1.0	 -1.0	 1.03567	 100.0	 1	 11.5	 2.3	 0.0	 0.0	 0.0	 0.0	 0.0	 0.0	 0.0	 0.0	 0.0	 0.0	 0.0;
	1414	 4.013	 0.775	 7.8	 -7.8	 1.01631	 100.0	 1	 13.0	 2.6	 0.0	 0.0	 0.0	 0.0	 0.0	 0.0	 0.0	 0.0	 0.0	 0.0	 0.0;
	1414	 3.792	 0.661	 7.2	 -7.2	 1.01631	 100.0	 1	 12.0	 2.4	 0.0	 0.0	 0.0	 0.0	 0.0	 0.0	 0.0	 0.0	 0.0	 0.0	 0.0;
	662	 33.884	 -3.166	 20.0	 -18.0	 1.03715	 100.0	 1	 40.0	 8.0	 0.0	 0.0	 0.0	 0.0	 0.0	 0.0	 0.0	 0.0	 0.0	 0.0	 0.0;
	2697	 33.884	 -3.166	 20.0	 -18.0	 1.03715	 100.0	 1	 40.0	 8.0	 0.0	 0.0	 0.0	 0.0	 0.0	 0.0	 0.0	 0.0	 0.0	 0.0	 0.0;
	2696	 33.884	 -3.166	 20.0	 -18.0	 1.03715	 100.0	 1	 40.0	 8.0	 0.0	 0.0	 0.0	 0.0	 0.0	 0.0	 0.0	 0.0	 0.0	 0.0	 0.0;
	1346	 2.681	 3.527	 7.0	 -7.0	 1.0133	 100.0	 1	 12.0	 2.4	 0.0	 0.0	 0.0	 0.0	 0.0	 0.0	 0.0	 0.0	 0.0	 0.0	 0.0;
	1346	 2.681	 3.527	 7.0	 -7.0	 1.0133	 100.0	 1	 12.0	 2.4	 0.0	 0.0	 0.0	 0.0	 0.0	 0.0	 0.0	 0.0	 0.0	 0.0	 0.0;
	2622	 2.364	 0.604	 26.0	 -26.0	 1.01635	 100.0	 1	 8.0	 1.6	 0.0	 0.0	 0.0	 0.0	 0.0	 0.0	 0.0	 0.0	 0.0	 0.0	 0.0;
	2622	 3.819	 0.604	 26.0	 -26.0	 1.01635	 100.0	 1	 15.0	 3.0	 0.0	 0.0	 0.0	 0.0	 0.0	 0.0	 0.0	 0.0	 0.0	 0.0	 0.0;
	291	 3.8	 0.057	 26.0	 -26.0	 1.01214	 100.0	 1	 19.0	 3.8	 0.0	 0.0	 0.0	 0.0	 0.0	 0.0	 0.0	 0.0	 0.0	 0.0	 0.0;
	1490	 8.706	 0.497	 6.5	 -6.5	 1.01402	 100.0	 1	 10.6	 2.12	 0.0	 0.0	 0.0	 0.0	 0.0	 0.0	 0.0	 0.0	 0.0	 0.0	 0.0;
	1671	 21.4	 -3.6	 15.0	 -15.0	 1.03772	 100.0	 1	 21.4	 4.28	 0.0	 0.0	 0.0	 0.0	 0.0	 0.0	 0.0	 0.0	 0.0	 0.0	 0.0;
	1615	 0.0	 0.0	 24.0	 -24.0	 1.01096	 100.0	 0	 39.0	 7.8	 0.0	 0.0	 0.0	 0.0	 0.0	 0.0	 0.0	 0.0	 0.0	 0.0	 0.0;
	1681	 87.0	 -24.36	 26.1	 -24.36	 1.04739	 100.0	 1	 87.0	 17.4	 0.0	 0.0	 0.0	 0.0	 0.0	 0.0	 0.0	 0.0	 0.0	 0.0	 0.0;
	418	 63.515	 -29.995	 50.0	 -40.0	 0.96798	 100.0	 1	 75.0	 15.0	 0.0	 0.0	 0.0	 0.0	 0.0	 0.0	 0.0	 0.0	 0.0	 0.0	 0.0;
	2658	 63.515	 -29.995	 50.0	 -40.0	 0.96798	 100.0	 1	 75.0	 15.0	 0.0	 0.0	 0.0	 0.0	 0.0	 0.0	 0.0	 0.0	 0.0	 0.0	 0.0;
	418	 63.515	 -29.995	 50.0	 -40.0	 0.96798	 100.0	 1	 75.0	 15.0	 0.0	 0.0	 0.0	 0.0	 0.0	 0.0	 0.0	 0.0	 0.0	 0.0	 0.0;
	2658	 63.515	 -29.995	 50.0	 -40.0	 0.96798	 100.0	 1	 75.0	 15.0	 0.0	 0.0	 0.0	 0.0	 0.0	 0.0	 0.0	 0.0	 0.0	 0.0	 0.0;
	461	 41.4	 -11.59	 12.42	 -11.59	 1.0493	 100.0	 1	 41.4	 8.28	 0.0	 0.0	 0.0	 0.0	 0.0	 0.0	 0.0	 0.0	 0.0	 0.0	 0.0;
	31	 6.68	 0.0	 0.0	 0.0	 1.02356	 100.0	 1	 6.68	 1.34	 0.0	 0.0	 0.0	 0.0	 0.0	 0.0	 0.0	 0.0	 0.0	 0.0	 0.0;
	236	 15.0	 0.071	 7.0	 0.0	 1.0393	 100.0	 1	 15.0	 3.0	 0.0	 0.0	 0.0	 0.0	 0.0	 0.0	 0.0	 0.0	 0.0	 0.0	 0.0;
	236	 15.0	 0.071	 7.0	 0.0	 1.0393	 100.0	 1	 15.0	 3.0	 0.0	 0.0	 0.0	 0.0	 0.0	 0.0	 0.0	 0.0	 0.0	 0.0	 0.0;
	1754	 1.0	 -0.005	 1.0	 -1.0	 1.0375	 100.0	 1	 1.0	 0.0	 0.0	 0.0	 0.0	 0.0	 0.0	 0.0	 0.0	 0.0	 0.0	 0.0	 0.0;
	1754	 1.0	 -0.005	 1.0	 -1.0	 1.0375	 100.0	 1	 1.0	 0.0	 0.0	 0.0	 0.0	 0.0	 0.0	 0.0	 0.0	 0.0	 0.0	 0.0	 0.0;
	1754	 1.0	 -0.005	 1.0	 -1.0	 1.0375	 100.0	 1	 1.0	 0.0	 0.0	 0.0	 0.0	 0.0	 0.0	 0.0	 0.0	 0.0	 0.0	 0.0	 0.0;
	898	 1.7	 0.0	 0.0	 0.0	 1.01302	 100.0	 1	 1.7	 0.0	 0.0	 0.0	 0.0	 0.0	 0.0	 0.0	 0.0	 0.0	 0.0	 0.0	 0.0;
	898	 22.6	 0.0	 0.0	 0.0	 1.01302	 100.0	 1	 22.6	 4.52	 0.0	 0.0	 0.0	 0.0	 0.0	 0.0	 0.0	 0.0	 0.0	 0.0	 0.0;
	120	 13.558	 -9.0	 9.0	 -9.0	 1.02865	 100.0	 1	 15.0	 3.0	 0.0	 0.0	 0.0	 0.0	 0.0	 0.0	 0.0	 0.0	 0.0	 0.0	 0.0;
	549	 50.0	 3.66	 22.0	 -10.0	 1.04618	 100.0	 1	 50.0	 5.0	 0.0	 0.0	 0.0	 0.0	 0.0	 0.0	 0.0	 0.0	 0.0	 0.0	 0.0;
	77	 4.7	 0.0	 0.0	 0.0	 1.04971	 100.0	 1	 23.5	 4.7	 0.0	 0.0	 0.0	 0.0	 0.0	 0.0	 0.0	 0.0	 0.0	 0.0	 0.0;
	124	 -0.219	 0.0	 0.0	 0.0	 1.05559	 100.0	 1	 0.0	 -7.0	 0.0	 0.0	 0.0	 0.0	 0.0	 0.0	 0.0	 0.0	 0.0	 0.0	 0.0;
	124	 -0.219	 0.0	 0.0	 0.0	 1.05559	 100.0	 1	 0.0	 -7.0	 0.0	 0.0	 0.0	 0.0	 0.0	 0.0	 0.0	 0.0	 0.0	 0.0	 0.0;
	552	 16.871	 0.0	 0.0	 0.0	 1.02472	 100.0	 1	 21.0	 4.2	 0.0	 0.0	 0.0	 0.0	 0.0	 0.0	 0.0	 0.0	 0.0	 0.0	 0.0;
	1858	 2.31	 0.119	 6.0	 -6.0	 0.89101	 100.0	 1	 9.6	 1.92	 0.0	 0.0	 0.0	 0.0	 0.0	 0.0	 0.0	 0.0	 0.0	 0.0	 0.0;
	134	 25.0	 -0.948	 13.0	 -9.0	 1.0448	 100.0	 1	 25.0	 5.0	 0.0	 0.0	 0.0	 0.0	 0.0	 0.0	 0.0	 0.0	 0.0	 0.0	 0.0;
	1204	 13.84	 -11.166	 25.0	 -20.0	 1.00676	 100.0	 1	 42.0	 8.4	 0.0	 0.0	 0.0	 0.0	 0.0	 0.0	 0.0	 0.0	 0.0	 0.0	 0.0;
	1204	 13.84	 -11.166	 25.0	 -20.0	 1.00676	 100.0	 1	 42.0	 8.4	 0.0	 0.0	 0.0	 0.0	 0.0	 0.0	 0.0	 0.0	 0.0	 0.0	 0.0;
	641	 11.0	 4.288	 5.0	 -5.0	 1.03037	 100.0	 1	 11.0	 2.2	 0.0	 0.0	 0.0	 0.0	 0.0	 0.0	 0.0	 0.0	 0.0	 0.0	 0.0;
	641	 11.0	 4.288	 5.0	 -5.0	 1.03037	 100.0	 1	 11.0	 2.2	 0.0	 0.0	 0.0	 0.0	 0.0	 0.0	 0.0	 0.0	 0.0	 0.0	 0.0;
...
];

%% generator cost data
%	2	startup	shutdown	n	c(n-1)	...	c0
mpc.gencost = [
	2	 0.0	 0.0	 3	   0.000000	   1.000000	   0.000000;
	2	 0.0	 0.0	 3	   0.000000	   1.000000	   0.000000;
	2	 0.0	 0.0	 3	   0.000000	   1.000000	   0.000000;
	2	 0.0	 0.0	 3	   0.000000	   1.000000	   0.000000;
	2	 0.0	 0.0	 3	   0.000000	   1.000000	   0.000000;
	2	 0.0	 0.0	 3	   0.000000	   1.000000	   0.000000;
	2	 0.0	 0.0	 3	   0.000000	   1.000000	   0.000000;
	2	 0.0	 0.0	 3	   0.000000	   1.000000	   0.000000;
	2	 0.0	 0.0	 3	   0.000000	   1.000000	   0.000000;
	2	 0.0	 0.0	 3	   0.000000	   1.000000	   0.000000;
	2	 0.0	 0.0	 3	   0.000000	   1.000000	   0.000000;
	2	 0.0	 0.0	 3	   0.000000	   1.000000	   0.000000;
	2	 0.0	 0.0	 3	   0.000000	   1.000000	   0.000000;
	2	 0.0	 0.0	 3	   0.000000	   1.000000	   0.000000;
	2	 0.0	 0.0	 3	   0.000000	   1.000000	   0.000000;
	2	 0.0	 0.0	 3	   0.000000	   1.000000	   0.000000;
	2	 0.0	 0.0	 3	   0.000000	   1.000000	   0.000000;
	2	 0.0	 0.0	 3	   0.000000	   2.000000	   0.000000;
	2	 0.0	 0.0	 3	   0.000000	   1.000000	   0.000000;
	2	 0.0	 0.0	 3	   0.000000	   1.000000	   0.000000;
	2	 0.0	 0.0	 3	   0.000000	   1.000000	   0.000000;
	2	 0.0	 0.0	 3	   0.000000	   1.000000	   0.000000;
	2	 0.0	 0.0	 3	   0.000000	   1.000000	   0.000000;
	2	 0.0	 0.0	 3	   0.000000	   1.000000	   0.000000;
	2	 0.0	 0.0	 3	   0.000000	   1.000000	   0.000000;
	2	 0.0	 0.0	 3	   0.000000	   1.000000	   0.000000;
	2	 0.0	 0.0	 3	   0.000000	   1.000000	   0.000000;
	2	 0.0	 0.0	 3	   0.000000	   1.000000	   0.000000;
	2	 0.0	 0.0	 3	   0.000000	   1.000000	   0.000000;
	2	 0.0	 0.0	 3	   0.000000	   1.000000	   0.000000;
	2	 0.0	 0.0	 3	   0.000000	   1.000000	   0.000000;
	2	 0.0	 0.0	 3	   0.000000	   1.000000	   0.000000;
	2	 0.0	 0.0	 3	   0.000000	   1.000000	   0.000000;
	2	 0.0	 0.0	 3	   0.000000	   1.000000	   0.000000;
	2	 0.0	 0.0	 3	   0.000000	   1.000000	   0.000000;
	2	 0.0	 0.0	 3	   0.000000	   1.000000	   0.000000;
	2	 0.0	 0.0	 3	   0.000000	   1.000000	   0.000000;
	2	 0.0	 0.0	 3	   0.000000	   1.000000	   0.000000;
	2	 0.0	 0.0	 3	   0.000000	   1.000000	   0.000000;
	2	 0.0	 0.0	 3	   0.000000	   1.000000	   0.000000;
	2	 0.0	 0.0	 3	   0.000000	   1.000000	   0.000000;
	2	 0.0	 0.0	 3	   0.000000	   1.000000	   0.000000;
	2	 0.0	 0.0	 3	   0.000000	   1.000000	   0.000000;
	2	 0.0	 0.0	 3	   0.000000	   1.000000	   0.000000;
	2	 0.0	 0.0	 3	   0.000000	   1.000000	   0.000000;
	2	 0.0	 0.0	 3	   0.000000	   1.000000	   0.000000;
	2	 0.0	 0.0	 3	   0.000000	   1.000000	   0.000000;
	2	 0.0	 0.0	 3	   0.000000	   1.000000	   0.000000;
	2	 0.0	 0.0	 3	   0.000000	   1.000000	   0.000000;
	2	 0.0	 0.0	 3	   0.000000	   1.000000	   0.000000;
	2	 0.0	 0.0	 3	   0.000000	   1.000000	   0.000000;
	2	 0.0	 0.0	 3	   0.000000	   1.000000	   0.000000;
	2	 0.0	 0.0	 3	   0.000000	   1.000000	   0.000000;
	2	 0.0	 0.0	 3	   0.000000	   1.000000	   0.000000;
	2	 0.0	 0.0	 3	   0.000000	   1.000000	   0.000000;
	2	 0.0	 0.0	 3	   0.000000	   1.000000	   0.000000;
	2	 0.0	 0.0	 3	   0.000000	   1.000000	   0.000000;
	2	 0.0	 0.0	 3	   0.000000	   1.000000	   0.000000;
	2	 0.0	 0.0	 3	   0.000000	   1.000000	   0.000000;
	2	 0.0	 0.0	 3	   0.000000	   1.000000	   0.000000;
	2	 0.0	 0.0	 3	   0.000000	   1.000000	   0.000000;
	2	 0.0	 0.0	 3	   0.000000	   1.000000	   0.000000;
	2	 0.0	 0.0	 3	   0.000000	   1.000000	   0.000000;
	2	 0.0	 0.0	 3	   0.000000	   1.000000	   0.000000;
	2	 0.0	 0.0	 3	   0.000000	   1.000000	   0.000000;
	2	 0.0	 0.0	 3	   0.000000	   1.000000	   0.000000;
	2	 0.0	 0.0	 3	   0.000000	   1.000000	   0.000000;
	2	 0.0	 0.0	 3	   0.000000	   1.000000	   0.000000;
	2	 0.0	 0.0	 3	   0.000000	   1.000000	   0.000000;
	2	 0.0	 0.0	 3	   0.000000	   1.000000	   0.000000;
	2	 0.0	 0.0	 3	   0.000000	   1.000000	   0.000000;
	2	 0.0	 0.0	 3	   0.000000	   1.000000	   0.000000;
	2	 0.0	 0.0	 3	   0.000000	   1.000000	   0.000000;
	2	 0.0	 0.0	 3	   0.000000	   1.000000	   0.000000;
	2	 0.0	 0.0	 3	   0.000000	   1.000000	   0.000000;
	2	 0.0	 0.0	 3	   0.000000	   1.000000	   0.000000;
	2	 0.0	 0.0	 3	   0.000000	   1.000000	   0.000000;
	2	 0.0	 0.0	 3	   0.000000	   1.000000	   0.000000;
	2	 0.0	 0.0	 3	   0.000000	   1.000000	   0.000000;
	2	 0.0	 0.0	 3	   0.000000	   1.000000	   0.000000;
	2	 0.0	 0.0	 3	   0.000000	   1.000000	   0.000000;
	2	 0.0	 0.0	 3	   0.000000	   1.000000	   0.000000;
	2	 0.0	 0.0	 3	   0.000000	   1.000000	   0.000000;
	2	 0.0	 0.0	 3	   0.000000	   1.000000	   0.000000;
	2	 0.0	 0.0	 3	   0.000000	   1.000000	   0.000000;
	2	 0.0	 0.0	 3	   0.000000	   1.000000	   0.000000;
	2	 0.0	 0.0	 3	   0.000000	   2.000000	   0.000000;
	2	 0.0	 0.0	 3	   0.000000	   1.000000	   0.000000;
	2	 0.0	 0.0	 3	   0.000000	   1.000000	   0.000000;
	2	 0.0	 0.0	 3	   0.000000	   1.000000	   0.000000;
	2	 0.0	 0.0	 3	   0.000000	   1.000000	   0.000000;
	2	 0.0	 0.0	 3	   0.000000	   1.000000	   0.000000;
	2	 0.0	 0.0	 3	   0.000000	   1.000000	   0.000000;
	2	 0.0	 0.0	 3	   0.000000	   2.000000	   0.000000;
	2	 0.0	 0.0	 3	   0.000000	   1.000000	   0.000000;
	2	 0.0	 0.0	 3	   0.000000	   1.000000	   0.000000;
	2	 0.0	 0.0	 3	   0.000000	   1.000000	   0.000000;
	2	 0.0	 0.0	 3	   0.000000	   1.000000	   0.000000;
	2	 0.0	 0.0	 3	   0.000000	   1.000000	   0.000000;
	2	 0.0	 0.0	 3	   0.000000	   1.000000	   0.000000;
	2	 0.0	 0.0	 3	   0.000000	   1.000000	   0.000000;
	2	 0.0	 0.0	 3	   0.000000	   1.000000	   0.000000;
	2	 0.0	 0.0	 3	   0.000000	   1.000000	   0.000000;
	2	 0.0	 0.0	 3	   0.000000	   1.000000	   0.000000;
	2	 0.0	 0.0	 3	   0.000000	   1.000000	   0.000000;
	2	 0.0	 0.0	 3	   0.000000	   1.000000	   0.000000;
	2	 0.0	 0.0	 3	   0.000000	   1.000000	   0.000000;
	2	 0.0	 0.0	 3	   0.000000	   1.000000	   0.000000;
	2	 0.0	 0.0	 3	   0.000000	   1.000000	   0.000000;
	2	 0.0	 0.0	 3	   0.000000	   1.000000	   0.000000;
	2	 0.0	 0.0	 3	   0.000000	   1.000000	   0.000000;
	2	 0.0	 0.0	 3	   0.000000	   1.000000	   0.000000;
	2	 0.0	 0.0	 3	   0.000000	   1.000000	   0.000000;
	2	 0.0	 0.0	 3	   0.000000	   1.000000	   0.000000;
	2	 0.0	 0.0	 3	   0.000000	   1.000000	   0.000000;
	2	 0.0	 0.0	 3	   0.000000	   1.000000	   0.000000;
	2	 0.0	 0.0	 3	   0.000000	   1.000000	   0.000000;
	2	 0.0	 0.0	 3	   0.000000	   1.000000	   0.000000;
	2	 0.0	 0.0	 3	   0.000000	   1.000000	   0.000000;
	2	 0.0	 0.0	 3	   0.000000	   1.000000	   0.000000;
	2	 0.0	 0.0	 3	   0.000000	   1.000000	   0.000000;
	2	 0.0	 0.0	 3	   0.000000	   1.000000	   0.000000;
	2	 0.0	 0.0	 3	   0.000000	   1.000000	   0.000000;
	2	 0.0	 0.0	 3	   0.000000	   1.000000	   0.000000;
	2	 0.0	 0.0	 3	   0.000000	   2.000000	   0.000000;
	2	 0.0	 0.0	 3	   0.000000	   2.000000	   0.000000;
	2	 0.0	 0.0	 3	   0.000000	   1.000000	   0.000000;
	2	 0.0	 0.0	 3	   0.000000	   1.000000	   0.000000;
	2	 0.0	 0.0	 3	   0.000000	   1.000000	   0.000000;
	2	 0.0	 0.0	 3	   0.000000	   1.000000	   0.000000;
	2	 0.0	 0.0	 3	   0.000000	   1.000000	   0.000000;
	2	 0.0	 0.0	 3	   0.000000	   1.000000	   0.000000;
	2	 0.0	 0.0	 3	   0.000000	   2.000000	   0.000000;
	2	 0.0	 0.0	 3	   0.000000	   2.000000	   0.000000;
	2	 0.0	 0.0	 3	   0.000000	   1.000000	   0.000000;
	2	 0.0	 0.0	 3	   0.000000	   1.000000	   0.000000;
	2	 0.0	 0.0	 3	   0.000000	   1.000000	   0.000000;
	2	 0.0	 0.0	 3	   0.000000	   1.000000	   0.000000;
	2	 0.0	 0.0	 3	   0.000000	   1.000000	   0.000000;
	2	 0.0	 0.0	 3	   0.000000	   1.000000	   0.000000;
	2	 0.0	 0.0	 3	   0.000000	   1.000000	   0.000000;
	2	 0.0	 0.0	 3	   0.000000	   1.000000	   0.000000;
	2	 0.0	 0.0	 3	   0.000000	   1.000000	   0.000000;
	2	 0.0	 0.0	 3	   0.000000	   1.000000	   0.000000;
	2	 0.0	 0.0	 3	   0.000000	   1.000000	   0.000000;
	2	 0.0	 0.0	 3	   0.000000	   1.000000	   0.000000;
	2	 0.0	 0.0	 3	   0.000000	   1.000000	   0.000000;
	2	 0.0	 0.0	 3	   0.000000	   1.000000	   0.000000;
	2	 0.0	 0.0	 3	   0.000000	   1.000000	   0.000000;
	2	 0.0	 0.0	 3	   0.000000	   1.000000	   0.000000;
	2	 0.0	 0.0	 3	   0.000000	   1.000000	   0.000000;
	2	 0.0	 0.0	 3	   0.000000	   1.000000	   0.000000;
	2	 0.0	 0.0	 3	   0.000000	   2.000000	   0.000000;
	2	 0.0	 0.0	 3	   0.000000	   2.000000	   0.000000;
	2	 0.0	 0.0	 3	   0.000000	   1.000000	   0.000000;
	2	 0.0	 0.0	 3	   0.000000	   1.000000	   0.000000;
	2	 0.0	 0.0	 3	   0.000000	   1.000000	   0.000000;
	2	 0.0	 0.0	 3	   0.000000	   1.000000	   0.000000;
	2	 0.0	 0.0	 3	   0.000000	   1.000000	   0.000000;
	2	 0.0	 0.0	 3	   0.000000	   1.000000	   0.000000;
	2	 0.0	 0.0	 3	   0.000000	   1.000000	   0.000000;
	2	 0.0	 0.0	 3	   0.000000	   1.000000	   0.000000;
	2	 0.0	 0.0	 3	   0.000000	   1.000000	   0.000000;
	2	 0.0	 0.0	 3	   0.000000	   1.000000	   0.000000;
	2	 0.0	 0.0	 3	   0.000000	   1.000000	   0.000000;
	2	 0.0	 0.0	 3	   0.000000	   1.000000	   0.000000;
	2	 0.0	 0.0	 3	   0.000000	   1.000000	   0.000000;
	2	 0.0	 0.0	 3	   0.000000	   1.000000	   0.000000;
	2	 0.0	 0.0	 3	   0.000000	   1.000000	   0.000000;
	2	 0.0	 0.0	 3	   0.000000	   1.000000	   0.000000;
	2	 0.0	 0.0	 3	   0.000000	   1.000000	   0.000000;
	2	 0.0	 0.0	 3	   0.000000	   1.000000	   0.000000;
	2	 0.0	 0.0	 3	   0.000000	   1.000000	   0.000000;
	2	 0.0	 0.0	 3	   0.000000	   2.000000	   0.000000;
	2	 0.0	 0.0	 3	   0.000000	   1.000000	   0.000000;
	2	 0.0	 0.0	 3	   0.000000	   1.000000	   0.000000;
	2	 0.0	 0.0	 3	   0.000000	   1.000000	   0.000000;
	2	 0.0	 0.0	 3	   0.000000	   1.000000	   0.000000;
	2	 0.0	 0.0	 3	   0.000000	   1.000000	   0.000000;
	2	 0.0	 0.0	 3	   0.000000	   1.000000	   0.000000;
	2	 0.0	 0.0	 3	   0.000000	   1.000000	   0.000000;
	2	 0.0	 0.0	 3	   0.000000	   1.000000	   0.000000;
	2	 0.0	 0.0	 3	   0.000000	   1.000000	   0.000000;
	2	 0.0	 0.0	 3	   0.000000	   1.000000	   0.000000;
	2	 0.0	 0.0	 3	   0.000000	   1.000000	   0.000000;
	2	 0.0	 0.0	 3	   0.000000	   1.000000	   0.000000;
	2	 0.0	 0.0	 3	   0.000000	   1.000000	   0.000000;
	2	 0.0	 0.0	 3	   0.000000	   1.000000	   0.000000;
	2	 0.0	 0.0	 3	   0.000000	   1.000000	   0.000000;
	2	 0.0	 0.0	 3	   0.000000	   1.000000	   0.000000;
	2	 0.0	 0.0	 3	   0.000000	   1.000000	   0.000000;
	2	 0.0	 0.0	 3	   0.000000	   1.000000	   0.000000;
	2	 0.0	 0.0	 3	   0.000000	   1.000000	   0.000000;
	2	 0.0	 0.0	 3	   0.000000	   1.000000	   0.000000;
	2	 0.0	 0.0	 3	   0.000000	   1.000000	   0.000000;
	2	 0.0	 0.0	 3	   0.000000	   1.000000	   0.000000;
	2	 0.0	 0.0	 3	   0.000000	   1.000000	   0.000000;
	2	 0.0	 0.0	 3	   0.000000	   1.000000	   0.000000;
	2	 0.0	 0.0	 3	   0.000000	   1.000000	   0.000000;
	2	 0.0	 0.0	 3	   0.000000	   1.000000	   0.000000;
...
];

%% branch data
%	fbus	tbus	r	x	b	rateA	rateB	rateC	ratio	angle	status	angmin	angmax
mpc.branch = [
	639	 1	 0.005799	 0.010615	 0.0075	 2441	 2441	 2441	 1.0	 0.0	 1	 -30.0	 30.0;
	909	 2	 0.002607	 0.017462	 0.0324	 540.0	 540.0	 540.0	 1.0	 0.0	 1	 -30.0	 30.0;
	2575	 3	 2.1e-05	 0.000125	 0.1386	 737.0	 737.0	 737.0	 1.0	 0.0	 1	 -30.0	 30.0;
	875	 3	 0.000145	 0.001877	 0.0635	 2487.0	 2487.0	 2487.0	 1.0	 0.0	 1	 -30.0	 30.0;
	1710	 3	 0.000319	 0.003234	 0.0838	 1841.0	 1841.0	 1841.0	 1.0	 0.0	 1	 -30.0	 30.0;
	46	 3	 2.1e-05	 0.000125	 0.1386	 737.0	 737.0	 737.0	 1.0	 0.0	 1	 -30.0	 30.0;
	1073	 4	 0.037541	 0.100529	 0.0011	 284	 284	 284	 1.0	 0.0	 1	 -30.0	 30.0;
	1533	 4	 0.090199	 0.211388	 0.0023	 133	 133	 133	 1.0	 0.0	 1	 -30.0	 30.0;
	1658	 4	 0.09801	 0.267574	 0.0	 107	 107	 107	 1.0	 0.0	 1	 -30.0	 30.0;
	1370	 5	 0.009383	 0.019753	 0.0	 1194	 1194	 1194	 1.0	 0.0	 1	 -30.0	 30.0;
	1370	 6	 0.001975	 0.004444	 0.0	 5369	 5369	 5369	 1.0	 0.0	 1	 -30.0	 30.0;
	199	 7	 0.006163	 0.041067	 0.0759	 446.0	 446.0	 446.0	 1.0	 0.0	 1	 -30.0	 30.0;
	880	 7	 0.000652	 0.004369	 0.0081	 558.0	 558.0	 558.0	 1.0	 0.0	 1	 -30.0	 30.0;
	1061	 8	 0.067019	 0.137566	 0.0037	 193	 193	 193	 1.0	 0.0	 1	 -30.0	 30.0;
	1223	 8	 0.032754	 0.088939	 0.0039	 312	 312	 312	 1.0	 0.0	 1	 -30.0	 30.0;
	1223	 8	 0.030184	 0.080096	 0.0053	 345	 345	 345	 1.0	 0.0	 1	 -30.0	 30.0;
	1371	 10	 0.009733	 0.034089	 0.0185	 944	 944	 944	 1.0	 0.0	 1	 -30.0	 30.0;
	147	 11	 0.000277	 0.002015	 0.003	 288.0	 288.0	 288.0	 1.0	 0.0	 1	 -30.0	 30.0;
	387	 2571	 0.00881	 0.033995	 0.0607	 289.0	 289.0	 289.0	 1.0	 0.0	 1	 -30.0	 30.0;
	437	 2571	 0.004642	 0.019832	 0.0354	 255.0	 255.0	 255.0	 1.0	 0.0	 1	 -30.0	 30.0;
	955	 11	 0.008861	 0.03506	 0.0623	 288.0	 288.0	 288.0	 1.0	 0.0	 1	 -30.0	 30.0;
	991	 11	 0.006993	 0.032869	 0.0557	 255.0	 255.0	 255.0	 1.0	 0.0	 1	 -30.0	 30.0;
	1774	 2571	 0.002173	 0.008731	 0.0152	 3441	 3441	 3441	 1.0	 0.0	 1	 -30.0	 30.0;
	1817	 11	 0.00077	 0.003121	 0.0051	 9629	 9629	 9629	 1.0	 0.0	 1	 -30.0	 30.0;
	2092	 2571	 0.004109	 0.016138	 0.0284	 288.0	 288.0	 288.0	 1.0	 0.0	 1	 -30.0	 30.0;
	2591	 12	 8.3e-05	 0.000907	 0.0202	 1034.0	 1034.0	 1034.0	 1.0	 0.0	 1	 -30.0	 30.0;
	419	 12	 0.000552	 0.006726	 0.0939	 1786.0	 1786.0	 1786.0	 1.0	 0.0	 1	 -30.0	 30.0;
	808	 12	 0.000512	 0.008012	 0.2455	 2462.0	 2462.0	 2462.0	 1.0	 0.0	 1	 -30.0	 30.0;
	1158	 12	 0.001107	 0.00918	 0.1906	 1644.0	 1644.0	 1644.0	 1.0	 0.0	 1	 -30.0	 30.0;
	148	 12	 6.2e-05	 0.000741	 0.0173	 1095.0	 1095.0	 1095.0	 1.0	 0.0	 1	 -30.0	 30.0;
	808	 12	 0.000512	 0.008019	 0.2455	 2462.0	 2462.0	 2462.0	 1.0	 0.0	 1	 -30.0	 30.0;
	808	 12	 0.001153	 0.013123	 0.1841	 1433.0	 1433.0	 1433.0	 1.0	 0.0	 1	 -30.0	 30.0;
	167	 13	 0.000158	 0.000672	 0.0719	 331.0	 331.0	 331.0	 1.0	 0.0	 1	 -30.0	 30.0;
	1463	 13	 4.5e-05	 8.9e-05	 0.002	 268.0	 268.0	 268.0	 1.0	 0.0	 1	 -30.0	 30.0;
	820	 14	 0.033258	 0.090955	 0.001	 305	 305	 305	 1.0	 0.0	 1	 -30.0	 30.0;
	465	 15	 0.071303	 0.180902	 0.0021	 152	 152	 152	 1.0	 0.0	 1	 -30.0	 30.0;
	878	 15	 0.071554	 0.18191	 0.0021	 152	 152	 152	 1.0	 0.0	 1	 -30.0	 30.0;
	2664	 16	 0.00478	 0.028622	 0.0547	 455.0	 455.0	 455.0	 1.0	 0.0	 1	 -30.0	 30.0;
	451	 16	 0.00478	 0.028583	 0.0547	 455.0	 455.0	 455.0	 1.0	 0.0	 1	 -30.0	 30.0;
	151	 17	 0.000257	 0.000514	 0.0294	 53862	 53862	 53862	 1.0	 0.0	 1	 -30.0	 30.0;
	987	 18	 0.000257	 0.002153	 0.2147	 452.0	 452.0	 452.0	 1.0	 0.0	 1	 -30.0	 30.0;
	1264	 18	 0.000277	 0.000869	 0.0931	 481.0	 481.0	 481.0	 1.0	 0.0	 1	 -30.0	 30.0;
	1903	 19	 0.000756	 0.00252	 0.0	 11716	 11716	 11716	 1.0	 0.0	 1	 -30.0	 30.0;
	1247	 20	 0.000237	 0.00083	 0.1863	 268.0	 268.0	 268.0	 1.0	 0.0	 1	 -30.0	 30.0;
	1301	 20	 0.000178	 0.000612	 0.1377	 268.0	 268.0	 268.0	 1.0	 0.0	 1	 -30.0	 30.0;
	59	 21	 0.002568	 0.011753	 0.0203	 424.0	 424.0	 424.0	 1.0	 0.0	 1	 -30.0	 30.0;
	1908	 21	 0.002568	 0.011615	 0.0228	 290.0	 290.0	 290.0	 1.0	 0.0	 1	 -30.0	 30.0;
	591	 22	 0.102293	 0.226757	 0.0025	 122	 122	 122	 1.0	 0.0	 1	 -30.0	 30.0;
	855	 22	 0.177551	 0.405291	 0.0046	 68	 68	 68	 1.0	 0.0	 1	 -30.0	 30.0;
	1199	 22	 0.088264	 0.161566	 0.0017	 163	 163	 163	 1.0	 0.0	 1	 -30.0	 30.0;
	820	 23	 0.043336	 0.11867	 0.001	 234	 234	 234	 1.0	 0.0	 1	 -30.0	 30.0;
	1059	 23	 0.067775	 0.139834	 0.001	 191	 191	 191	 1.0	 0.0	 1	 -30.0	 30.0;
	1691	 23	 0.047367	 0.16125	 0.0021	 177	 177	 177	 1.0	 0.0	 1	 -30.0	 30.0;
	1922	 23	 0.004031	 0.016629	 0.001	 1726	 1726	 1726	 1.0	 0.0	 1	 -30.0	 30.0;
	1377	 24	 9.9e-05	 0.00077	 0.078	 379.0	 379.0	 379.0	 1.0	 0.0	 1	 -30.0	 30.0;
	1377	 2573	 9.9e-05	 0.00077	 0.077	 379.0	 379.0	 379.0	 1.0	 0.0	 1	 -30.0	 30.0;
	1908	 25	 0.000514	 0.003437	 0.0061	 290.0	 290.0	 290.0	 1.0	 0.0	 1	 -30.0	 30.0;
	1914	 25	 0.005476	 0.036879	 0.1255	 522.0	 522.0	 522.0	 1.0	 0.0	 1	 -30.0	 30.0;
	59	 25	 0.000514	 0.003457	 0.0061	 418.0	 418.0	 418.0	 1.0	 0.0	 1	 -30.0	 30.0;
	1138	 26	 0.003477	 0.01118	 0.0187	 304.0	 304.0	 304.0	 1.0	 0.0	 1	 -30.0	 30.0;
	1409	 26	 0.000612	 0.003121	 0.0152	 270.0	 270.0	 270.0	 1.0	 0.0	 1	 -30.0	 30.0;
	2755	 27	 0.013857	 0.035525	 0.0004	 775	 775	 775	 1.0	 0.0	 1	 -30.0	 30.0;
	1514	 28	 2.4e-05	 0.000144	 0.0213	 701.0	 701.0	 701.0	 1.0	 0.0	 1	 -30.0	 30.0;
	1514	 2574	 7.1e-05	 0.000162	 0.0162	 251.0	 251.0	 251.0	 1.0	 0.0	 1	 -30.0	 30.0;
	249	 29	 0.068027	 0.173091	 0.002	 159	 159	 159	 1.0	 0.0	 1	 -30.0	 30.0;
	296	 29	 0.027211	 0.068783	 0.001	 400	 400	 400	 1.0	 0.0	 1	 -30.0	 30.0;
	776	 29	 0.03099	 0.202822	 0.002	 146	 146	 146	 1.0	 0.0	 1	 -30.0	 30.0;
	1274	 30	 0.000257	 0.001165	 0.002	 405.0	 405.0	 405.0	 1.0	 0.0	 1	 -30.0	 30.0;
	1906	 31	 0.047317	 0.131595	 0.0015	 215	 215	 215	 1.0	 0.0	 1	 -30.0	 30.0;
	2686	 32	 0.075838	 0.224742	 0.0027	 125	 125	 125	 1.0	 0.0	 1	 -30.0	 30.0;
	648	 32	 0.028471	 0.089695	 0.001	 314	 314	 314	 1.0	 0.0	 1	 -30.0	 30.0;
	1337	 32	 0.080373	 0.255732	 0.003	 111	 111	 111	 1.0	 0.0	 1	 -30.0	 30.0;
	2050	 32	 0.000252	 0.000504	 0.0	 52398	 52398	 52398	 1.0	 0.0	 1	 -30.0	 30.0;
...